
*SRC=BZD2310;BZD2310;Diodes;Zener <=10V;10V 2.5W
.MODEL BZD2310 D (IS=320F RS=1.48 N=1 BV=9.930 IBV=50M
+ CJO=172P VJ=.75 M=.33 TT=50.1N)
* Philips 10 Volt  2.5 Watt  Zener Diode  06-16-1993
