
*SRC=BZD2343;BZD2343;Diodes;Zener 10V-50V;43V 2.5W
.MODEL BZD2343 D (IS=830P RS=21.4 N=1 BV=42.80 IBV=10M
+ CJO=70.2P VJ=1 M=.33 TT=50.1N)
* Philips 43 Volt  2.5 Watt  Zener Diode  06-16-1993
