
*SRC=BZD2339;BZD2339;Diodes;Zener 10V-50V;39V 2.5W
.MODEL BZD2339 D (IS=830P RS=18.4 N=1 BV=38.83 IBV=10M
+ CJO=75.9P VJ=1 M=.33 TT=50.1N)
* Philips 39 Volt  2.5 Watt  Zener Diode  06-16-1993
