
*SRC=BZD239V1;BZD239V1;Diodes;Zener <=10V;9.1V 2.5W
.MODEL BZD239V1 D (IS=320F RS=1.48 N=1 BV=9.030 IBV=50M
+ CJO=198P VJ=.75 M=.33 TT=50.1N)
* Philips 9.1 Volt  2.5 Watt  Zener Diode  06-16-1993
