
*SRC=BZD2368;BZD2368;Diodes;Zener >50V;68V 2.5W
.MODEL BZD2368 D (IS=830P RS=22.4 N=1 BV=67.80 IBV=10M
+ CJO=49.9P VJ=1 M=.33 TT=50.1N)
* Philips 68 Volt  2.5 Watt  Zener Diode  06-16-1993
