
*SRC=BZD2333;BZD2333;Diodes;Zener 10V-50V;33V 2.5W
.MODEL BZD2333 D (IS=830P RS=6.96 N=1 BV=32.84 IBV=25M
+ CJO=87P VJ=1 M=.33 TT=50.1N)
* Philips 33 Volt  2.5 Watt  Zener Diode  06-16-1993
