
*SRC=BZD2327;BZD2327;Diodes;Zener 10V-50V;27V 2.5W
.MODEL BZD2327 D (IS=830P RS=5.96 N=1 BV=26.86 IBV=25M
+ CJO=103P VJ=1 M=.33 TT=50.1N)
* Philips 27 Volt  2.5 Watt  Zener Diode  06-16-1993
