
*SRC=BZD23130;BZD23130;Diodes;Zener >50V;130V 2.5W
.MODEL BZD23130 D (IS=830P RS=104 N=1 BV=129.5 IBV=5M
+ CJO=33.2P VJ=1 M=.33 TT=50.1N)
* Philips 130 Volt  2.5 Watt  Zener Diode  06-16-1993
