
*SRC=BZD2375;BZD2375;Diodes;Zener >50V;75V 2.5W
.MODEL BZD2375 D (IS=830P RS=27.4 N=1 BV=74.76 IBV=10M
+ CJO=46.6P VJ=1 M=.33 TT=50.1N)
* Philips 75 Volt  2.5 Watt  Zener Diode  06-16-1993
