
*SRC=BZD237V5;BZD237V5;Diodes;Zener <=10V;7.5V 2.5W
.MODEL BZD237V5 D (IS=.494F RS=.643 N=1 BV=7.439 IBV=.1
+ CJO=265P VJ=.75 M=.33 TT=50.1N)
* Philips 7.5 Volt  2.5 Watt  Zener Diode  06-16-1993
