
*SRC=BZD2336;BZD2336;Diodes;Zener 10V-50V;36V 2.5W
.MODEL BZD2336 D (IS=830P RS=18.4 N=1 BV=35.83 IBV=10M
+ CJO=81P VJ=1 M=.33 TT=50.1N)
* Philips 36 Volt  2.5 Watt  Zener Diode  06-16-1993
