
*SRC=BZD2330;BZD2330;Diodes;Zener 10V-50V;30V 2.5W
.MODEL BZD2330 D (IS=830P RS=6.96 N=1 BV=29.84 IBV=25M
+ CJO=94.2P VJ=1 M=.33 TT=50.1N)
* Philips 30 Volt  2.5 Watt  Zener Diode  06-16-1993
