
*SRC=BZD2382;BZD2382;Diodes;Zener >50V;82V 2.5W
.MODEL BZD2382 D (IS=830P RS=27.4 N=1 BV=81.76 IBV=10M
+ CJO=43.9P VJ=1 M=.33 TT=50.1N)
* Philips 82 Volt  2.5 Watt  Zener Diode  06-16-1993
