
*SRC=BZD23200;BZD23200;Diodes;Zener >50V;200V 2.5W
.MODEL BZD23200 D (IS=830P RS=194 N=1 BV=199.1 IBV=5M
+ CJO=26.8P VJ=1 M=.33 TT=50.1N)
* Philips 200 Volt  2.5 Watt  Zener Diode  06-16-1993
