
*SRC=BZD23220;BZD23220;Diodes;Zener >50V;220V 2.5W
.MODEL BZD23220 D (IS=830P RS=337 N=1 BV=219.4 IBV=2M
+ CJO=25.8P VJ=1 M=.33 TT=50.1N)
* Philips 220 Volt  2.5 Watt  Zener Diode  06-16-1993
