
*SRC=BZD23110;BZD23110;Diodes;Zener >50V;110V 2.5W
.MODEL BZD23110 D (IS=830P RS=74.8 N=1 BV=109.6 IBV=5M
+ CJO=36.6P VJ=1 M=.33 TT=50.1N)
* Philips 110 Volt  2.5 Watt  Zener Diode  06-16-1993
