
*SRC=BZD2391;BZD2391;Diodes;Zener >50V;91V 2.5W
.MODEL BZD2391 D (IS=830P RS=54.8 N=1 BV=90.77 IBV=5M
+ CJO=41.1P VJ=1 M=.33 TT=50.1N)
* Philips 91 Volt  2.5 Watt  Zener Diode  06-16-1993
