
*SRC=BZD2324;BZD2324;Diodes;Zener 10V-50V;24V 2.5W
.MODEL BZD2324 D (IS=830P RS=5.96 N=1 BV=23.86 IBV=25M
+ CJO=114P VJ=1 M=.33 TT=50.1N)
* Philips 24 Volt  2.5 Watt  Zener Diode  06-16-1993
