
*SRC=BZD2347;BZD2347;Diodes;Zener 10V-50V;47V 2.5W
.MODEL BZD2347 D (IS=830P RS=21.4 N=1 BV=46.80 IBV=10M
+ CJO=65.5P VJ=1 M=.33 TT=50.1N)
* Philips 47 Volt  2.5 Watt  Zener Diode  06-16-1993
