
*SRC=BZD2322;BZD2322;Diodes;Zener 10V-50V;22V 2.5W
.MODEL BZD2322 D (IS=830P RS=4.96 N=1 BV=21.88 IBV=25M
+ CJO=123P VJ=1 M=.33 TT=50.1N)
* Philips 22 Volt  2.5 Watt  Zener Diode  06-16-1993
