
*SRC=BZT0339;BZT0339;Diodes;Zener 10V-50V;39V 3.25W
.MODEL BZT0339 D (IS=11N RS=18.4 N=1 BV=38.83 IBV=10M
+ CJO=94.2P VJ=1 M=.33 TT=50.1N)
* Philips 39 Volt  3.25 Watt  Zener Diode  06-16-1993
