
*SRC=BZT0368;BZT0368;Diodes;Zener >50V;68V 3.25W
.MODEL BZT0368 D (IS=11N RS=22.4 N=1 BV=67.80 IBV=10M
+ CJO=60.4P VJ=1 M=.33 TT=50.1N)
* Philips 68 Volt  3.25 Watt  Zener Diode  06-16-1993
