
*SRC=BZT0310;BZT0310;Diodes;Zener <=10V;10V 3.25W
.MODEL BZT0310 D (IS=372F RS=1.48 N=1 BV=9.930 IBV=50M
+ CJO=224P VJ=.75 M=.33 TT=50.1N)
* Philips 10 Volt  3.25 Watt  Zener Diode  06-16-1993
