
*SRC=BZT0375;BZT0375;Diodes;Zener >50V;75V 3.25W
.MODEL BZT0375 D (IS=11N RS=27.4 N=1 BV=74.76 IBV=10M
+ CJO=56.1P VJ=1 M=.33 TT=50.1N)
* Philips 75 Volt  3.25 Watt  Zener Diode  06-16-1993
