
*SRC=BZT0313;BZT0313;Diodes;Zener 10V-50V;13V 3.25W
.MODEL BZT0313 D (IS=11N RS=4.48 N=1 BV=12.78 IBV=50M
+ CJO=252P VJ=1 M=.33 TT=50.1N)
* Philips 13 Volt  3.25 Watt  Zener Diode  06-16-1993
