
*SRC=BZT0330;BZT0330;Diodes;Zener 10V-50V;30V 3.25W
.MODEL BZT0330 D (IS=11N RS=6.96 N=1 BV=29.84 IBV=25M
+ CJO=117P VJ=1 M=.33 TT=50.1N)
* Philips 30 Volt  3.25 Watt  Zener Diode  06-16-1993
