
*SRC=BZT0311;BZT0311;Diodes;Zener 10V-50V;11V 3.25W
.MODEL BZT0311 D (IS=838P RS=3.48 N=1 BV=10.83 IBV=50M
+ CJO=295P VJ=1 M=.33 TT=50.1N)
* Philips 11 Volt  3.25 Watt  Zener Diode  06-16-1993
