
*SRC=BZT0343;BZT0343;Diodes;Zener 10V-50V;43V 3.25W
.MODEL BZT0343 D (IS=11N RS=21.4 N=1 BV=42.80 IBV=10M
+ CJO=86.8P VJ=1 M=.33 TT=50.1N)
* Philips 43 Volt  3.25 Watt  Zener Diode  06-16-1993
