
*SRC=BZT038V2;BZT038V2;Diodes;Zener <=10V;8.2V 3.25W
.MODEL BZT038V2 D (IS=21.3F RS=.741 N=1 BV=8.129 IBV=.1
+ CJO=301P VJ=.75 M=.33 TT=50.1N)
* Philips 8.2 Volt  3.25 Watt  Zener Diode  06-16-1993
