
*SRC=BZT037V5;BZT037V5;Diodes;Zener <=10V;7.5V 3.25W
.MODEL BZT037V5 D (IS=21.3F RS=.741 N=1 BV=7.429 IBV=.1
+ CJO=345P VJ=.75 M=.33 TT=50.1N)
* Philips 7.5 Volt  3.25 Watt  Zener Diode  06-16-1993
