
*SRC=BZT03240;BZT03240;Diodes;Zener >50V;240V 3.25W
.MODEL BZT03240 D (IS=11N RS=387 N=1 BV=239.3 IBV=2M
+ CJO=27.8P VJ=1 M=.33 TT=50.1N)
* Philips 240 Volt  3.25 Watt  Zener Diode  06-16-1993
