
*SRC=BZT03110;BZT03110;Diodes;Zener >50V;110V 3.25W
.MODEL BZT03110 D (IS=11N RS=74.8 N=1 BV=109.6 IBV=5M
+ CJO=43P VJ=1 M=.33 TT=50.1N)
* Philips 110 Volt  3.25 Watt  Zener Diode  06-16-1993
