
*SRC=BZT0362;BZT0362;Diodes;Zener >50V;62V 3.25W
.MODEL BZT0362 D (IS=11N RS=22.4 N=1 BV=61.80 IBV=10M
+ CJO=64.8P VJ=1 M=.33 TT=50.1N)
* Philips 62 Volt  3.25 Watt  Zener Diode  06-16-1993
