
*SRC=BZT0351;BZT0351;Diodes;Zener >50V;51V 3.25W
.MODEL BZT0351 D (IS=11N RS=22.4 N=1 BV=50.80 IBV=10M
+ CJO=75.5P VJ=1 M=.33 TT=50.1N)
* Philips 51 Volt  3.25 Watt  Zener Diode  06-16-1993
