
*SRC=BZT0316;BZT0316;Diodes;Zener 10V-50V;16V 3.25W
.MODEL BZT0316 D (IS=11N RS=4.96 N=1 BV=15.88 IBV=25M
+ CJO=208P VJ=1 M=.33 TT=50.1N)
* Philips 16 Volt  3.25 Watt  Zener Diode  06-16-1993
