
*SRC=BZT03120;BZT03120;Diodes;Zener >50V;120V 3.25W
.MODEL BZT03120 D (IS=11N RS=74.8 N=1 BV=119.6 IBV=5M
+ CJO=40.7P VJ=1 M=.33 TT=50.1N)
* Philips 120 Volt  3.25 Watt  Zener Diode  06-16-1993
