
*SRC=BZT0333;BZT0333;Diodes;Zener 10V-50V;33V 3.25W
.MODEL BZT0333 D (IS=11N RS=6.96 N=1 BV=32.84 IBV=25M
+ CJO=108P VJ=1 M=.33 TT=50.1N)
* Philips 33 Volt  3.25 Watt  Zener Diode  06-16-1993
