
*SRC=BZT0312;BZT0312;Diodes;Zener 10V-50V;12V 3.25W
.MODEL BZT0312 D (IS=838P RS=3.48 N=1 BV=11.83 IBV=50M
+ CJO=272P VJ=1 M=.33 TT=50.1N)
* Philips 12 Volt  3.25 Watt  Zener Diode  06-16-1993
