
*SRC=BZT03100;BZT03100;Diodes;Zener >50V;100V 3.25W
.MODEL BZT03100 D (IS=11N RS=54.8 N=1 BV=99.77 IBV=5M
+ CJO=45.8P VJ=1 M=.33 TT=50.1N)
* Philips 100 Volt  3.25 Watt  Zener Diode  06-16-1993
