
*SRC=ZC821A;ZC821A;Diodes;Zener 10V-50V;45V .2W
.MODEL ZC821A D IS=4.668E-15 N=1.0630 RS=0.1917 XTI=3
+ EG=1.11 CJO=27.41E-12 M=0.9 VJ=2.129 FC=0.5
+ BV=45.1 IBV=51.75E-3 TT=150E-9
* Zetex 45 Volt  .2 Watt  Zener Diode  06-15-1993
