
*SRC=ZC822A;ZC822A;Diodes;Zener 10V-50V;45V .2W
.MODEL ZC822A D IS=3.857E-15 N=1.0460 RS=0.1188 XTI=3
+ EG=1.11 CJO=39.99E-12 M=0.9 VJ=2.268 FC=0.5
+ BV=45.1 IBV=51.74E-3 TT=177.5E-9
* Zetex 45 Volt  .2 Watt  Zener Diode  06-15-1993
