
*SRC=ZC824A;ZC824A;Diodes;Zener 10V-50V;45V .2W
.MODEL ZC824A D IS=5.526E-15 N=1.0380 RS=0.1000 XTI=3
+ EG=1.11 CJO=86.90E-12 M=0.9700 VJ=2.225 FC=0.5
+ BV=45.1 IBV=51.74E-3 TT=216.4E-9
* Zetex 45 Volt  .2 Watt  Zener Diode  06-15-1993
