
*SRC=ZC836A;ZC836A;Diodes;Zener 10V-50V;45V .2W
.MODEL ZC836A D IS=8.661E-15 N=1.0260 RS=0.0300 XTI=3
+ EG=1.11 CJO=184.8E-12 M=.9 VJ=2.297 FC=0.5
+ BV=45.1 IBV=51.74E-3 TT=313.1E-9
* Zetex 45 Volt  .2 Watt  Zener Diode  06-15-1993
