
*SRC=1N5381A;DN5381A;Diodes;Zener >50V;130V 5W
.MODEL DN5381A D (IS=165P RS=187 N=1 BV=128.1 IBV=10M
+ CJO=51.5P VJ=1 M=.33 TT=50.1N)
* SGS Thomson 130 Volt  5 Watt  Zener Diode  02-05-1993
