
*SRC=1N5349A;DN5349A;Diodes;Zener 10V-50V;12V 5W
.MODEL DN5349A D (IS=1.63F RS=2.25 N=1 BV=11.77 IBV=.104
+ CJO=411P VJ=1 M=.33 TT=50.1N)
* SGS Thomson 12 Volt  5 Watt  Zener Diode  02-05-1993
