
*SRC=1N5370A;DN5370A;Diodes;Zener >50V;56V 5W
.MODEL DN5370A D (IS=165P RS=33.7 N=1 BV=55.35 IBV=20M
+ CJO=99.8P VJ=1 M=.33 TT=50.1N)
* SGS Thomson 56 Volt  5 Watt  Zener Diode  02-05-1993
