
*SRC=1N5376A;DN5376A;Diodes;Zener >50V;87V 5W
.MODEL DN5376A D (IS=165P RS=73.3 N=1 BV=85.94 IBV=15M
+ CJO=69.6P VJ=1 M=.33 TT=50.1N)
* SGS Thomson 87 Volt  5 Watt  Zener Diode  02-05-1993
