
*SRC=1N5369A;DN5369A;Diodes;Zener >50V;51V 5W
.MODEL DN5369A D (IS=165P RS=25.9 N=1 BV=50.37 IBV=25M
+ CJO=108P VJ=1 M=.33 TT=50.1N)
* SGS Thomson 51 Volt  5 Watt  Zener Diode  02-05-1993
