
*SRC=1N5356A;DN5356A;Diodes;Zener 10V-50V;19V 5W
.MODEL DN5356A D (IS=6.42F RS=2.6 N=1 BV=18.83 IBV=65.8M
+ CJO=265P VJ=1 M=.33 TT=50.1N)
* SGS Thomson 19 Volt  5 Watt  Zener Diode  02-05-1993
