
*SRC=1N5380A;DN5380A;Diodes;Zener >50V;120V 5W
.MODEL DN5380A D (IS=165P RS=167 N=1 BV=118.3 IBV=10.4M
+ CJO=54.6P VJ=1 M=.33 TT=50.1N)
* SGS Thomson 120 Volt  5 Watt  Zener Diode  02-05-1993
