
*SRC=1N5387A;DN5387A;Diodes;Zener >50V;190V 5W
.MODEL DN5387A D (IS=165P RS=445 N=1 BV=187.8 IBV=5M
+ CJO=40P VJ=1 M=.33 TT=50.1N)
* SGS Thomson 190 Volt  5 Watt  Zener Diode  02-05-1993
