
*SRC=1N5347A;DN5347A;Diodes;Zener <=10V;10V 5W
.MODEL DN5347A D (IS=.277F RS=1.79 N=1 BV=9.780 IBV=.125
+ CJO=344P VJ=.75 M=.33 TT=50.1N)
* SGS Thomson 10 Volt  5 Watt  Zener Diode  02-05-1993
