
*SRC=1N5371A;DN5371A;Diodes;Zener >50V;60V 5W
.MODEL DN5371A D (IS=165P RS=38.7 N=1 BV=59.25 IBV=20M
+ CJO=94.2P VJ=1 M=.33 TT=50.1N)
* SGS Thomson 60 Volt  5 Watt  Zener Diode  02-05-1993
