
*SRC=1N5357A;DN5357A;Diodes;Zener 10V-50V;20V 5W
.MODEL DN5357A D (IS=6.3F RS=2.6 N=1 BV=19.84 IBV=65M
+ CJO=252P VJ=1 M=.33 TT=50.1N)
* SGS Thomson 20 Volt  5 Watt  Zener Diode  02-05-1993
