
*SRC=1N5388A;DN5388A;Diodes;Zener >50V;200V 5W
.MODEL DN5388A D (IS=165P RS=475 N=1 BV=197.7 IBV=5M
+ CJO=38.7P VJ=1 M=.33 TT=50.1N)
* SGS Thomson 200 Volt  5 Watt  Zener Diode  02-05-1993
