
*SRC=1N5367A;DN5367A;Diodes;Zener 10V-50V;43V 5W
.MODEL DN5367A D (IS=165P RS=19.1 N=1 BV=42.46 IBV=29M
+ CJO=125P VJ=1 M=.33 TT=50.1N)
* SGS Thomson 43 Volt  5 Watt  Zener Diode  02-05-1993
