
*SRC=1N5382A;DN5382A;Diodes;Zener >50V;140V 5W
.MODEL DN5382A D (IS=165P RS=227 N=1 BV=138.0 IBV=8.93M
+ CJO=48.9P VJ=1 M=.33 TT=50.1N)
* SGS Thomson 140 Volt  5 Watt  Zener Diode  02-05-1993
