
*SRC=1N5352A;DN5352A;Diodes;Zener 10V-50V;15V 5W
.MODEL DN5352A D (IS=1.12F RS=2.15 N=1 BV=14.84 IBV=75M
+ CJO=331P VJ=1 M=.33 TT=50.1N)
* SGS Thomson 15 Volt  5 Watt  Zener Diode  02-05-1993
