
*SRC=1N5355A;DN5355A;Diodes;Zener 10V-50V;18V 5W
.MODEL DN5355A D (IS=.915F RS=2.1 N=1 BV=17.87 IBV=65M
+ CJO=279P VJ=1 M=.33 TT=50.1N)
* SGS Thomson 18 Volt  5 Watt  Zener Diode  02-05-1993
