
*SRC=1N5361A;DN5361A;Diodes;Zener 10V-50V;27V 5W
.MODEL DN5361A D (IS=8.95P RS=4.48 N=1 BV=26.78 IBV=50M
+ CJO=191P VJ=1 M=.33 TT=50.1N)
* SGS Thomson 27 Volt  5 Watt  Zener Diode  02-05-1993
