
*SRC=1N5375A;DN5375A;Diodes;Zener >50V;82V 5W
.MODEL DN5375A D (IS=165P RS=63.3 N=1 BV=81.09 IBV=15M
+ CJO=72.9P VJ=1 M=.33 TT=50.1N)
* SGS Thomson 82 Volt  5 Watt  Zener Diode  02-05-1993
