
*SRC=1N5368A;DN5368A;Diodes;Zener 10V-50V;47V 5W
.MODEL DN5368A D (IS=165P RS=23.9 N=1 BV=46.42 IBV=25M
+ CJO=116P VJ=1 M=.33 TT=50.1N)
* SGS Thomson 47 Volt  5 Watt  Zener Diode  02-05-1993
