
*SRC=1N5366A;DN5366A;Diodes;Zener 10V-50V;39V 5W
.MODEL DN5366A D (IS=165P RS=13.1 N=1 BV=38.62 IBV=30M
+ CJO=136P VJ=1 M=.33 TT=50.1N)
* SGS Thomson 39 Volt  5 Watt  Zener Diode  02-05-1993
