
*SRC=1N5360A;DN5360A;Diodes;Zener 10V-50V;25V 5W
.MODEL DN5360A D (IS=149F RS=3.42 N=1 BV=24.84 IBV=50M
+ CJO=205P VJ=1 M=.33 TT=50.1N)
* SGS Thomson 25 Volt  5 Watt  Zener Diode  02-05-1993
