
*SRC=1N5374A;DN5374A;Diodes;Zener >50V;75V 5W
.MODEL DN5374A D (IS=165P RS=43.7 N=1 BV=74.16 IBV=20M
+ CJO=78.3P VJ=1 M=.33 TT=50.1N)
* SGS Thomson 75 Volt  5 Watt  Zener Diode  02-05-1993
