
*SRC=1N5336A;DN5336A;Diodes;Zener <=10V;4.3V 5W
.MODEL DN5336A D (IS=.438F RS=1.91 N=1 BV=3.746 IBV=.29
+ CJO=1.22N VJ=.75 M=.33 TT=50.1N)
* SGS Thomson 4.3 Volt  5 Watt  Zener Diode  02-05-1993
