
*SRC=1N5354A;DN5354A;Diodes;Zener 10V-50V;17V 5W
.MODEL DN5354A D (IS=1.02F RS=2.13 N=1 BV=16.85 IBV=70M
+ CJO=294P VJ=1 M=.33 TT=50.1N)
* SGS Thomson 17 Volt  5 Watt  Zener Diode  02-05-1993
