
*SRC=1N5351A;DN5351A;Diodes;Zener 10V-50V;14V 5W
.MODEL DN5351A D (IS=1.39F RS=2.21 N=1 BV=13.80 IBV=89.3M
+ CJO=354P VJ=1 M=.33 TT=50.1N)
* SGS Thomson 14 Volt  5 Watt  Zener Diode  02-05-1993
