
*SRC=1N827;DN827;Diodes;Zener <=10V;6.2V .4W
.MODEL DN827 D (IS=19F RS=11.5 N=1 BV=6.116 IBV=7.5M
+ CJO=93P VJ=.75 M=.33 TT=60.1N)
* Motorola 6.2 Volt  .4 Watt  Zener Diode  02-05-1993
