
*SRC=1N935;DN935;Diodes;Zener <=10V;9V .5W
.MODEL DN935 D (IS=400F RS=16.5 N=1 BV=8.880 IBV=7.5M
+ CJO=40.3P VJ=.75 M=.33 TT=20.1N)
* Motorola 9 Volt  .5 Watt  Zener Diode  02-05-1993
