
*SRC=ZDX2F;ZDX2F;Diodes;Zener >50V;100V .2W
.MODEL ZDX2F D IS=4.739E-9 N=1.849 RS=.4418 XTI=3 
+      EG=1.11 BV=99.08 IBV=25.88E-3 TT=2.02E-9 CJO=3P
* Zetex 100 Volt  .2 Watt  Zener Diode  06-15-1993
