
*SRC=ZDX6;ZDX6;Diodes;Zener >50V;165V .2W
.MODEL ZDX6 D IS=4.858E-9 N=2.038 RS=1.898 XTI=3 
+      EG=1.11 BV=164.1 IBV=12.94E-3 TT=4.184E-9 CJO=3P
* Zetex 165 Volt  .2 Watt  Zener Diode  06-15-1993
