
*SRC=EQA0321;EQA0321;Diodes;Zener 10V-50V;21.4V .4W
.MODEL EQA0321 D (IS=52.4F RS=14.8 N=1 BV=21.33 IBV=5M
+ CJO=32.7P VJ=1 M=.33 TT=50.1N)
* Fuji 21.4 Volt  .4 Watt  Zener Diode  07-02-1993
