
*SRC=EQA0314;EQA0314;Diodes;Zener 10V-50V;14.5V .4W
.MODEL EQA0314 D (IS=24.2F RS=12.3 N=1 BV=14.44 IBV=5M
+ CJO=41.2P VJ=1 M=.33 TT=50.1N)
* Fuji 14.5 Volt  .4 Watt  Zener Diode  07-02-1993
