
*SRC=EQA0325;EQA0325;Diodes;Zener 10V-50V;25.6V .4W
.MODEL EQA0325 D (IS=113F RS=17.3 N=1 BV=25.52 IBV=5M
+ CJO=29.8P VJ=1 M=.33 TT=50.1N)
* Fuji 25.6 Volt  .4 Watt  Zener Diode  07-02-1993
