
*SRC=EQA0309;EQA0309;Diodes;Zener <=10V;9.2V .4W
.MODEL EQA0309 D (IS=2.39F RS=4.82 N=1 BV=9.180 IBV=5M
+ CJO=31.2P VJ=.75 M=.33 TT=50.1N)
* Fuji 9.2 Volt  .4 Watt  Zener Diode  07-02-1993
