
*SRC=EQA0333;EQA0333;Diodes;Zener 10V-50V;33.6V .4W
.MODEL EQA0333 D (IS=118P RS=39.8 N=1 BV=33.41 IBV=5M
+ CJO=26.3P VJ=1 M=.33 TT=50.1N)
* Fuji 33.6 Volt  .4 Watt  Zener Diode  07-02-1993
