
*SRC=EQA0315;EQA0315;Diodes;Zener 10V-50V;15.4V .4W
.MODEL EQA0315 D (IS=52.4F RS=14.8 N=1 BV=15.33 IBV=5M
+ CJO=39.6P VJ=1 M=.33 TT=50.1N)
* Fuji 15.4 Volt  .4 Watt  Zener Diode  07-02-1993
