
*SRC=EQA0328;EQA0328;Diodes;Zener 10V-50V;27.7V .4W
.MODEL EQA0328 D (IS=1.14P RS=24.8 N=1 BV=27.58 IBV=5M
+ CJO=28.7P VJ=1 M=.33 TT=50.1N)
* Fuji 27.7 Volt  .4 Watt  Zener Diode  07-02-1993
