
*SRC=EQA0308;EQA0308;Diodes;Zener <=10V;8.1V .4W
.MODEL EQA0308 D (IS=2.39F RS=4.82 N=1 BV=8.079 IBV=5M
+ CJO=37.8P VJ=.75 M=.33 TT=50.1N)
* Fuji 8.1 Volt  .4 Watt  Zener Diode  07-02-1993
