
*SRC=EQA0330;EQA0330;Diodes;Zener 10V-50V;29.8V .4W
.MODEL EQA0330 D (IS=5.38P RS=29.8 N=1 BV=29.66 IBV=5M
+ CJO=27.7P VJ=1 M=.33 TT=50.1N)
* Fuji 29.8 Volt  .4 Watt  Zener Diode  07-02-1993
