
*SRC=EQA0320;EQA0320;Diodes;Zener 10V-50V;20.2V .4W
.MODEL EQA0320 D (IS=52.4F RS=14.8 N=1 BV=20.13 IBV=5M
+ CJO=33.8P VJ=1 M=.33 TT=50.1N)
* Fuji 20.2 Volt  .4 Watt  Zener Diode  07-02-1993
