
*SRC=EQA0312;EQA0312;Diodes;Zener 10V-50V;12.7V .4W
.MODEL EQA0312 D (IS=5.17F RS=7.32 N=1 BV=12.66 IBV=5M
+ CJO=44.9P VJ=1 M=.33 TT=50.1N)
* Fuji 12.7 Volt  .4 Watt  Zener Diode  07-02-1993
