
*SRC=EQB0132;EQB0132;Diodes;Zener 10V-50V;31.5V 1W
.MODEL EQB0132 D (IS=5.19N RS=22.4 N=1 BV=31.29 IBV=10M
+ CJO=45.1P VJ=1 M=.33 TT=50.1N)
* Fuji 31.5 Volt  1 Watt  Zener Diode  07-02-1993
