
*SRC=EQB0116;EQB0116;Diodes;Zener 10V-50V;16V 1W
.MODEL EQB0116 D (IS=23.5F RS=3.7 N=1 BV=15.93 IBV=20M
+ CJO=74.4P VJ=1 M=.33 TT=50.1N)
* Fuji 16 Volt  1 Watt  Zener Diode  07-02-1993
