
*SRC=EQB0107;EQB0107;Diodes;Zener <=10V;6.9V 1W
.MODEL EQB0107 D (IS=4.77F RS=1.63 N=1 BV=6.854 IBV=30M
+ CJO=120P VJ=.75 M=.33 TT=50.1N)
* Fuji 6.9 Volt  1 Watt  Zener Diode  07-02-1993
