
*SRC=EQB0124;EQB0124;Diodes;Zener 10V-50V;23.6V 1W
.MODEL EQB0124 D (IS=411F RS=7.41 N=1 BV=23.53 IBV=10M
+ CJO=55.2P VJ=1 M=.33 TT=50.1N)
* Fuji 23.6 Volt  1 Watt  Zener Diode  07-02-1993
