
*SRC=EQB0118;EQB0118;Diodes;Zener 10V-50V;18V 1W
.MODEL EQB0118 D (IS=23.5F RS=3.7 N=1 BV=17.93 IBV=20M
+ CJO=67.8P VJ=1 M=.33 TT=50.1N)
* Fuji 18 Volt  1 Watt  Zener Diode  07-02-1993
