
*SRC=EQB0135;EQB0135;Diodes;Zener 10V-50V;35.5V 1W
.MODEL EQB0135 D (IS=5.19N RS=22.4 N=1 BV=35.29 IBV=10M
+ CJO=41.7P VJ=1 M=.33 TT=50.1N)
* Fuji 35.5 Volt  1 Watt  Zener Diode  07-02-1993
