
*SRC=EQB0119;EQB0119;Diodes;Zener 10V-50V;19V 1W
.MODEL EQB0119 D (IS=23.5F RS=3.7 N=1 BV=18.93 IBV=20M
+ CJO=65P VJ=1 M=.33 TT=50.1N)
* Fuji 19 Volt  1 Watt  Zener Diode  07-02-1993
