
*SRC=EQB0125;EQB0125;Diodes;Zener 10V-50V;25V 1W
.MODEL EQB0125 D (IS=411F RS=7.41 N=1 BV=24.93 IBV=10M
+ CJO=53P VJ=1 M=.33 TT=50.1N)
* Fuji 25 Volt  1 Watt  Zener Diode  07-02-1993
