
*SRC=EQB0126;EQB0126;Diodes;Zener 10V-50V;26.5V 1W
.MODEL EQB0126 D (IS=19.5P RS=12.4 N=1 BV=26.38 IBV=10M
+ CJO=50.8P VJ=1 M=.33 TT=50.1N)
* Fuji 26.5 Volt  1 Watt  Zener Diode  07-02-1993
