
*SRC=EQB0117;EQB0117;Diodes;Zener 10V-50V;17V 1W
.MODEL EQB0117 D (IS=23.5F RS=3.7 N=1 BV=16.93 IBV=20M
+ CJO=70.9P VJ=1 M=.33 TT=50.1N)
* Fuji 17 Volt  1 Watt  Zener Diode  07-02-1993
