
*SRC=EQB0128;EQB0128;Diodes;Zener 10V-50V;28V 1W
.MODEL EQB0128 D (IS=19.5P RS=12.4 N=1 BV=27.88 IBV=10M
+ CJO=48.9P VJ=1 M=.33 TT=50.1N)
* Fuji 28 Volt  1 Watt  Zener Diode  07-02-1993
