
*SRC=EQB0120;EQB0120;Diodes;Zener 10V-50V;20V 1W
.MODEL EQB0120 D (IS=23.5F RS=3.7 N=1 BV=19.93 IBV=20M
+ CJO=62.5P VJ=1 M=.33 TT=50.1N)
* Fuji 20 Volt  1 Watt  Zener Diode  07-02-1993
