
*SRC=EQB0108;EQB0108;Diodes;Zener <=10V;7.8V 1W
.MODEL EQB0108 D (IS=4.77F RS=1.63 N=1 BV=7.754 IBV=30M
+ CJO=100P VJ=.75 M=.33 TT=50.1N)
* Fuji 7.8 Volt  1 Watt  Zener Diode  07-02-1993
