
*SRC=EQB0110;EQB0110;Diodes;Zener <=10V;9.8V 1W
.MODEL EQB0110 D (IS=4.77F RS=1.63 N=1 BV=9.755 IBV=30M
+ CJO=71P VJ=.75 M=.33 TT=50.1N)
* Fuji 9.8 Volt  1 Watt  Zener Diode  07-02-1993
