
*SRC=1N1530;ZN1530;Diodes;Zener <=10V;8.4V .25W
.MODEL ZN1530 D (IS=1.73F RS=8.47 N=1 BV=8.319 IBV=10M
+ CJO=22.3P VJ=.75 M=.33 TT=50.1N)
* Motorola 8.4 Volt  .25 Watt  Zener Diode  06-15-1993
