
*SRC=1N1739;ZN1739;Diodes;Zener 10V-50V;31V 1W
.MODEL ZN1739 D (IS=5.19N RS=91.5 N=1 BV=30.32 IBV=7.5M
+ CJO=45.6P VJ=1 M=.33 TT=50.1N)
* Motorola 31 Volt  1 Watt  Zener Diode  06-15-1993
