
*SRC=1N1737;ZN1737;Diodes;Zener 10V-50V;18.6V .6W
.MODEL ZN1737 D (IS=3.11N RS=51.5 N=1 BV=18.22 IBV=7.5M
+ CJO=45.6P VJ=1 M=.33 TT=50.1N)
* Motorola 18.6 Volt  .6 Watt  Zener Diode  06-15-1993
