
*SRC=1N2977A;ZN2977A;Diodes;Zener 10V-50V;13V 10W
.MODEL ZN2977A D (IS=20.4F RS=1.36 N=1 BV=12.74 IBV=.19
+ CJO=746P VJ=1 M=.33 TT=50.1N)
* Motorola 13 Volt  10 Watt  Zener Diode  06-15-1993
