
*SRC=1N2985A;ZN2985A;Diodes;Zener 10V-50V;22V 10W
.MODEL ZN2985A D (IS=23.2P RS=2.27 N=1 BV=21.74 IBV=.115
+ CJO=447P VJ=1 M=.33 TT=50.1N)
* Motorola 22 Volt  10 Watt  Zener Diode  06-15-1993
