
*SRC=1N2983A;ZN2983A;Diodes;Zener 10V-50V;19V 10W
.MODEL ZN2983A D (IS=598F RS=1.8 N=1 BV=18.77 IBV=.13
+ CJO=515P VJ=1 M=.33 TT=50.1N)
* Motorola 19 Volt  10 Watt  Zener Diode  06-15-1993
