
*SRC=1N2984A;ZN2984A;Diodes;Zener 10V-50V;20V 10W
.MODEL ZN2984A D (IS=562F RS=1.79 N=1 BV=19.78 IBV=.125
+ CJO=490P VJ=1 M=.33 TT=50.1N)
* Motorola 20 Volt  10 Watt  Zener Diode  06-15-1993
