
*SRC=1N2989A;ZN2989A;Diodes;Zener 10V-50V;30V 10W
.MODEL ZN2989A D (IS=331P RS=3.69 N=1 BV=29.70 IBV=85M
+ CJO=331P VJ=1 M=.33 TT=50.1N)
* Motorola 30 Volt  10 Watt  Zener Diode  06-15-1993
