
*SRC=1N2988A;ZN2988A;Diodes;Zener 10V-50V;27V 10W
.MODEL ZN2988A D (IS=331P RS=3.22 N=1 BV=26.70 IBV=95M
+ CJO=367P VJ=1 M=.33 TT=50.1N)
* Motorola 27 Volt  10 Watt  Zener Diode  06-15-1993
