
*SRC=1N2986A;ZN2986A;Diodes;Zener 10V-50V;24V 10W
.MODEL ZN2986A D (IS=19.6P RS=2.25 N=1 BV=23.77 IBV=.105
+ CJO=411P VJ=1 M=.33 TT=50.1N)
* Motorola 24 Volt  10 Watt  Zener Diode  06-15-1993
