
*SRC=1N2993A;ZN2993A;Diodes;Zener 10V-50V;43V 10W
.MODEL ZN2993A D (IS=331P RS=5.57 N=1 BV=42.68 IBV=60M
+ CJO=236P VJ=1 M=.33 TT=50.1N)
* Motorola 43 Volt  10 Watt  Zener Diode  06-15-1993
