
*SRC=1N2995A;ZN2995A;Diodes;Zener 10V-50V;47V 10W
.MODEL ZN2995A D (IS=331P RS=6.53 N=1 BV=46.66 IBV=55M
+ CJO=217P VJ=1 M=.33 TT=50.1N)
* Motorola 47 Volt  10 Watt  Zener Diode  06-15-1993
