
*SRC=1N3001A;ZN3001A;Diodes;Zener >50V;68V 10W
.MODEL ZN3001A D (IS=331P RS=8.3 N=1 BV=67.72 IBV=37M
+ CJO=154P VJ=1 M=.33 TT=50.1N)
* Motorola 68 Volt  10 Watt  Zener Diode  06-15-1993
