
*SRC=1N3009A;ZN3009A;Diodes;Zener >50V;130V 10W
.MODEL ZN3009A D (IS=331P RS=48.6 N=1 BV=129.1 IBV=19M
+ CJO=88.1P VJ=1 M=.33 TT=50.1N)
* Motorola 130 Volt  10 Watt  Zener Diode  06-15-1993
