
*SRC=1N3000A;ZN3000A;Diodes;Zener >50V;62V 10W
.MODEL ZN3000A D (IS=331P RS=7.85 N=1 BV=61.71 IBV=40M
+ CJO=168P VJ=1 M=.33 TT=50.1N)
* Motorola 62 Volt  10 Watt  Zener Diode  06-15-1993
