
*SRC=1N3005A;ZN3005A;Diodes;Zener >50V;100V 10W
.MODEL ZN3005A D (IS=331P RS=18.9 N=1 BV=99.57 IBV=25M
+ CJO=110P VJ=1 M=.33 TT=50.1N)
* Motorola 100 Volt  10 Watt  Zener Diode  06-15-1993
