
*SRC=1N3011A;ZN3011A;Diodes;Zener >50V;150V 10W
.MODEL ZN3011A D (IS=331P RS=136 N=1 BV=147.7 IBV=17M
+ CJO=78.3P VJ=1 M=.33 TT=50.1N)
* Motorola 150 Volt  10 Watt  Zener Diode  06-15-1993
