
*SRC=1N3015A;ZN3015A;Diodes;Zener >50V;200V 10W
.MODEL ZN3015A D (IS=331P RS=147 N=1 BV=198.3 IBV=12M
+ CJO=62.5P VJ=1 M=.33 TT=50.1N)
* Motorola 200 Volt  10 Watt  Zener Diode  06-15-1993
