
*SRC=1N3012A;ZN3012A;Diodes;Zener >50V;160V 10W
.MODEL ZN3012A D (IS=331P RS=98.4 N=1 BV=158.5 IBV=16M
+ CJO=74.4P VJ=1 M=.33 TT=50.1N)
* Motorola 160 Volt  10 Watt  Zener Diode  06-15-1993
