
*SRC=1N4059;ZN4059;Diodes;Zener 10V-50V;16.8V 1.5W
.MODEL ZN4059 D (IS=7.79N RS=27.4 N=1 BV=16.53 IBV=10M
+ CJO=99.8P VJ=1 M=.33 TT=50.1N)
* Motorola 16.8 Volt  1.5 Watt  Zener Diode  06-15-1993
