
*SRC=1N4063;ZN4063;Diodes;Zener 10V-50V;27V 1.5W
.MODEL ZN4063 D (IS=7.79N RS=42.4 N=1 BV=26.58 IBV=10M
+ CJO=67.8P VJ=1 M=.33 TT=50.1N)
* Motorola 27 Volt  1.5 Watt  Zener Diode  06-15-1993
