
*SRC=1N4064;ZN4064;Diodes;Zener 10V-50V;30V 1.5W
.MODEL ZN4064 D (IS=7.79N RS=47.4 N=1 BV=29.54 IBV=10M
+ CJO=62.5P VJ=1 M=.33 TT=50.1N)
* Motorola 30 Volt  1.5 Watt  Zener Diode  06-15-1993
