
*SRC=1N4082;ZN4082;Diodes;Zener >50V;140V 2.5W
.MODEL ZN4082 D (IS=12.9N RS=950 N=1 BV=137.6 IBV=2.5M
+ CJO=31.9P VJ=1 M=.33 TT=50.1N)
* Motorola 140 Volt  2.5 Watt  Zener Diode  06-15-1993
