
*SRC=1N4467;ZN4467;Diodes;Zener 10V-50V;12V 1.5W
.MODEL ZN4467 D (IS=9.67F RS=4.26 N=1 BV=11.91 IBV=21M
+ CJO=94.2P VJ=1 M=.33 TT=50.1N)
* Motorola 12 Volt Zener Diode  12-11-1995
