
*SRC=1N4737;ZN4737;Diodes;Zener <=10V;7.5V 1W
.MODEL ZN4737 D (IS=.933F RS=1.23 N=1 BV=7.461 IBV=34M
+ CJO=106P VJ=.75 M=.33 TT=50.1N)
* Motorola 7.5 Volt  1 Watt  Zener Diode  06-15-1993
