
*SRC=1N4752;ZN4752;Diodes;Zener 10V-50V;33V 1W
.MODEL ZN4752 D (IS=2.67N RS=26.5 N=1 BV=32.81 IBV=7.5M
+ CJO=43.8P VJ=1 M=.33 TT=50.1N)
* Motorola 33 Volt  1 Watt  Zener Diode  06-15-1993
