
*SRC=1N4751;ZN4751;Diodes;Zener 10V-50V;30V 1W
.MODEL ZN4751 D (IS=2.67N RS=21.9 N=1 BV=29.82 IBV=8.5M
+ CJO=46.6P VJ=1 M=.33 TT=50.1N)
* Motorola 30 Volt  1 Watt  Zener Diode  06-15-1993
