
*SRC=1N4750;ZN4750;Diodes;Zener 10V-50V;27V 1W
.MODEL ZN4750 D (IS=222P RS=17.2 N=1 BV=26.84 IBV=9.5M
+ CJO=50.2P VJ=1 M=.33 TT=50.1N)
* Motorola 27 Volt  1 Watt  Zener Diode  06-15-1993
