
*SRC=1N4756;ZN4756;Diodes;Zener 10V-50V;47V 1W
.MODEL ZN4756 D (IS=2.67N RS=50.3 N=1 BV=46.74 IBV=5.5M
+ CJO=35.2P VJ=1 M=.33 TT=50.1N)
* Motorola 47 Volt  1 Watt  Zener Diode  06-15-1993
