
*SRC=1N4758;ZN4758;Diodes;Zener >50V;56V 1W
.MODEL ZN4758 D (IS=2.67N RS=69.2 N=1 BV=55.71 IBV=4.5M
+ CJO=31.9P VJ=1 M=.33 TT=50.1N)
* Motorola 56 Volt  1 Watt  Zener Diode  06-15-1993
