
*SRC=1N5348A;DN5348A;Diodes;Zener 10V-50V;11V 5W
.MODEL DN5348A D (IS=1.91F RS=2.29 N=1 BV=10.71 IBV=.125
+ CJO=447P VJ=1 M=.33 TT=50.1N)
* SGS Thomson 11 Volt  5 Watt  Zener Diode  02-05-1993
