
*SRC=1N5358A;DN5358A;Diodes;Zener 10V-50V;22V 5W
.MODEL DN5358A D (IS=27.3F RS=2.98 N=1 BV=21.86 IBV=50M
+ CJO=231P VJ=1 M=.33 TT=50.1N)
* SGS Thomson 22 Volt  5 Watt  Zener Diode  02-05-1993
