
*SRC=1N5350A;DN5350A;Diodes;Zener 10V-50V;13V 5W
.MODEL DN5350A D (IS=1.5F RS=2.23 N=1 BV=12.79 IBV=96.2M
+ CJO=380P VJ=1 M=.33 TT=50.1N)
* SGS Thomson 13 Volt  5 Watt  Zener Diode  02-05-1993
