
*SRC=1N5353A;DN5353A;Diodes;Zener 10V-50V;16V 5W
.MODEL DN5353A D (IS=1.18F RS=2.16 N=1 BV=15.83 IBV=78.1M
+ CJO=312P VJ=1 M=.33 TT=50.1N)
* SGS Thomson 16 Volt  5 Watt  Zener Diode  02-05-1993
