
*SRC=1N5359A;DN5359A;Diodes;Zener 10V-50V;24V 5W
.MODEL DN5359A D (IS=50.9F RS=3.14 N=1 BV=23.85 IBV=50M
+ CJO=213P VJ=1 M=.33 TT=50.1N)
* SGS Thomson 24 Volt  5 Watt  Zener Diode  02-05-1993
