
*SRC=1N5365A;DN5365A;Diodes;Zener 10V-50V;36V 5W
.MODEL DN5365A D (IS=165P RS=10.1 N=1 BV=35.71 IBV=30M
+ CJO=147P VJ=1 M=.33 TT=50.1N)
* SGS Thomson 36 Volt  5 Watt  Zener Diode  02-05-1993
