
*SRC=1N5362A;DN5362A;Diodes;Zener 10V-50V;28V 5W
.MODEL DN5362A D (IS=165P RS=5.48 N=1 BV=27.73 IBV=50M
+ CJO=184P VJ=1 M=.33 TT=50.1N)
* SGS Thomson 28 Volt  5 Watt  Zener Diode  02-05-1993
