
*SRC=1N5363A;DN5363A;Diodes;Zener 10V-50V;30V 5W
.MODEL DN5363A D (IS=165P RS=7.38 N=1 BV=29.70 IBV=41.6M
+ CJO=173P VJ=1 M=.33 TT=50.1N)
* SGS Thomson 30 Volt  5 Watt  Zener Diode  02-05-1993
