
*SRC=1N5372A;DN5372A;Diodes;Zener >50V;62V 5W
.MODEL DN5372A D (IS=165P RS=40.7 N=1 BV=61.21 IBV=20M
+ CJO=91.6P VJ=1 M=.33 TT=50.1N)
* SGS Thomson 62 Volt  5 Watt  Zener Diode  02-05-1993
