
*SRC=1N5378A;DN5378A;Diodes;Zener >50V;100V 5W
.MODEL DN5378A D (IS=165P RS=87.8 N=1 BV=98.99 IBV=12M
+ CJO=62.5P VJ=1 M=.33 TT=50.1N)
* SGS Thomson 100 Volt  5 Watt  Zener Diode  02-05-1993
