
*SRC=1N5379A;DN5379A;Diodes;Zener >50V;110V 5W
.MODEL DN5379A D (IS=165P RS=122 N=1 BV=108.5 IBV=12M
+ CJO=58.2P VJ=1 M=.33 TT=50.1N)
* SGS Thomson 110 Volt  5 Watt  Zener Diode  02-05-1993
