
*SRC=1N5377A;DN5377A;Diodes;Zener >50V;91V 5W
.MODEL DN5377A D (IS=165P RS=73.3 N=1 BV=89.94 IBV=15M
+ CJO=67.2P VJ=1 M=.33 TT=50.1N)
* SGS Thomson 91 Volt  5 Watt  Zener Diode  02-05-1993
