
*SRC=1N5373A;DN5373A;Diodes;Zener >50V;68V 5W
.MODEL DN5373A D (IS=165P RS=42.7 N=1 BV=67.17 IBV=20M
+ CJO=84.8P VJ=1 M=.33 TT=50.1N)
* SGS Thomson 68 Volt  5 Watt  Zener Diode  02-05-1993
