
*SRC=1N5383A;DN5383A;Diodes;Zener >50V;150V 5W
.MODEL DN5383A D (IS=165P RS=327 N=1 BV=147.3 IBV=8.33M
+ CJO=46.6P VJ=1 M=.33 TT=50.1N)
* SGS Thomson 150 Volt  5 Watt  Zener Diode  02-05-1993
