
*SRC=1N5384A;DN5384A;Diodes;Zener >50V;160V 5W
.MODEL DN5384A D (IS=165P RS=346 N=1 BV=157.3 IBV=7.81M
+ CJO=44.7P VJ=1 M=.33 TT=50.1N)
* SGS Thomson 160 Volt  5 Watt  Zener Diode  02-05-1993
