
*SRC=1N5386A;DN5386A;Diodes;Zener >50V;180V 5W
.MODEL DN5386A D (IS=165P RS=425 N=1 BV=177.9 IBV=5M
+ CJO=41.4P VJ=1 M=.33 TT=50.1N)
* SGS Thomson 180 Volt  5 Watt  Zener Diode  02-05-1993
