
*SRC=1N5385A;DN5385A;Diodes;Zener >50V;170V 5W
.MODEL DN5385A D (IS=165P RS=376 N=1 BV=167.3 IBV=7.35M
+ CJO=42.9P VJ=1 M=.33 TT=50.1N)
* SGS Thomson 170 Volt  5 Watt  Zener Diode  02-05-1993
