
*SRC=1N6463;ZN6463;Diodes;Zener 10V-50V;13.6V 2.5W
.MODEL ZN6463 D (IS=2.07U RS=21.6 N=1 BV=13.28 IBV=5M
+ CJO=2.72N VJ=.75 M=.333 TT=7.2U)
* Unitrode 13.6 Volt  2.5 Watt  Zener Diode  10-12-1991
