
*SRC=1N6464;ZN6464;Diodes;Zener 10V-50V;16.4V 2.5W
.MODEL ZN6464 D (IS=2.07U RS=33.6 N=1 BV=16.08 IBV=5M
+ CJO=2.52N VJ=.75 M=.333 TT=7.2U)
* Unitrode 16.4 Volt  2.5 Watt  Zener Diode  10-12-1991
