
*SRC=1N825A;DN825A;Diodes;Zener <=10V;6.2V .4W
.MODEL DN825A D (IS=3.49F RS=6.04 N=1 BV=6.157 IBV=7.5M
+ CJO=60P VJ=.75 M=.33 TT=50.1N)
* Motorola 6.2 Volt  .4 Watt  Zener Diode  02-05-1993
