
*SRC=1N827A;DN827A;Diodes;Zener <=10V;6.2V .4W
.MODEL DN827A D (IS=4.07F RS=6.54 N=1 BV=6.153 IBV=7.5M
+ CJO=100P VJ=.75 M=.33 TT=55.1N)
* Motorola 6.2 Volt  .4 Watt  Zener Diode  02-05-1993
