
*SRC=1N936;DN936;Diodes;Zener <=10V;9V .5W
.MODEL DN936 D (IS=416F RS=16.6 N=1 BV=8.879 IBV=7.5M
+ CJO=45P VJ=.75 M=.33 TT=32.1N)
* Motorola 9 Volt  .5 Watt  Zener Diode  02-05-1993
