
*SRC=1N939;DN939;Diodes;Zener <=10V;9V .5W
.MODEL DN939 D (IS=400F RS=16.5 N=1 BV=8.880 IBV=7.5M
+ CJO=67P VJ=.75 M=.33 TT=50.1N)
* Motorola 9 Volt  .5 Watt  Zener Diode  02-05-1993
