
*SRC=1N939A;DN939A;Diodes;Zener <=10V;9V .5W
.MODEL DN939A D (IS=400F RS=16.5 N=1 BV=8.880 IBV=7.5M
+ CJO=44P VJ=.75 M=.33 TT=55.1N)
* Motorola 9 Volt  .5 Watt  Zener Diode  02-05-1993
