
*SRC=EQA0313;EQA0313;Diodes;Zener 10V-50V;13.6V .4W
.MODEL EQA0313 D (IS=11.1F RS=9.82 N=1 BV=13.55 IBV=5M
+ CJO=42.9P VJ=1 M=.33 TT=50.1N)
* Fuji 13.6 Volt  .4 Watt  Zener Diode  07-02-1993
