
*SRC=EQA0317;EQA0317;Diodes;Zener 10V-50V;17.6V .4W
.MODEL EQA0317 D (IS=52.4F RS=14.8 N=1 BV=17.53 IBV=5M
+ CJO=36.6P VJ=1 M=.33 TT=50.1N)
* Fuji 17.6 Volt  .4 Watt  Zener Diode  07-02-1993
