
*SRC=EQA0335;EQA0335;Diodes;Zener 10V-50V;35.6V .4W
.MODEL EQA0335 D (IS=118P RS=39.8 N=1 BV=35.41 IBV=5M
+ CJO=25.6P VJ=1 M=.33 TT=50.1N)
* Fuji 35.6 Volt  .4 Watt  Zener Diode  07-02-1993
