
*SRC=EQA0306;EQA0306;Diodes;Zener <=10V;6V .4W
.MODEL EQA0306 D (IS=52.4F RS=14.8 N=1 BV=5.928 IBV=5M
+ CJO=59.3P VJ=.75 M=.33 TT=50.1N)
* Fuji 6 Volt  .4 Watt  Zener Diode  07-02-1993
