
*SRC=EQA0322;EQA0322;Diodes;Zener 10V-50V;22.4V .4W
.MODEL EQA0322 D (IS=52.4F RS=14.8 N=1 BV=22.33 IBV=5M
+ CJO=31.9P VJ=1 M=.33 TT=50.1N)
* Fuji 22.4 Volt  .4 Watt  Zener Diode  07-02-1993
