
*SRC=EQA0311;EQA0311;Diodes;Zener 10V-50V;11.9V .4W
.MODEL EQA0311 D (IS=5.17F RS=7.32 N=1 BV=11.86 IBV=5M
+ CJO=46.9P VJ=1 M=.33 TT=50.1N)
* Fuji 11.9 Volt  .4 Watt  Zener Diode  07-02-1993
