
*SRC=EQA0332;EQA0332;Diodes;Zener 10V-50V;31.7V .4W
.MODEL EQA0332 D (IS=25.2P RS=34.8 N=1 BV=31.54 IBV=5M
+ CJO=27P VJ=1 M=.33 TT=50.1N)
* Fuji 31.7 Volt  .4 Watt  Zener Diode  07-02-1993
