
*SRC=EQA0318;EQA0318;Diodes;Zener 10V-50V;18.8V .4W
.MODEL EQA0318 D (IS=52.4F RS=14.8 N=1 BV=18.73 IBV=5M
+ CJO=35.2P VJ=1 M=.33 TT=50.1N)
* Fuji 18.8 Volt  .4 Watt  Zener Diode  07-02-1993
