
*SRC=EQA0310;EQA0310;Diodes;Zener 10V-50V;10.6V .4W
.MODEL EQA0310 D (IS=2.39F RS=4.82 N=1 BV=10.58 IBV=5M
+ CJO=50.8P VJ=1 M=.33 TT=50.1N)
* Fuji 10.6 Volt  .4 Watt  Zener Diode  07-02-1993
