
*SRC=EQA0316;EQA0316;Diodes;Zener 10V-50V;16.4V .4W
.MODEL EQA0316 D (IS=52.4F RS=14.8 N=1 BV=16.33 IBV=5M
+ CJO=38.1P VJ=1 M=.33 TT=50.1N)
* Fuji 16.4 Volt  .4 Watt  Zener Diode  07-02-1993
