
*SRC=EQA0323;EQA0323;Diodes;Zener 10V-50V;23.7V .4W
.MODEL EQA0323 D (IS=113F RS=17.3 N=1 BV=23.62 IBV=5M
+ CJO=31P VJ=1 M=.33 TT=50.1N)
* Fuji 23.7 Volt  .4 Watt  Zener Diode  07-02-1993
