
*SRC=EQB0105;EQB0105;Diodes;Zener 10V-50V;5V 1W
.MODEL EQB0105 D (IS=3.37P RS=10.1 N=1 BV=4.698 IBV=30M
+ CJO=195P VJ=.75 M=.33 TT=50.1N)
* Fuji 5 Volt  1 Watt  Zener Diode  07-02-1993
