
*SRC=EQB0112;EQB0112;Diodes;Zener 10V-50V;12.2V 1W
.MODEL EQB0112 D (IS=15.1F RS=3.13 N=1 BV=12.11 IBV=30M
+ CJO=92.9P VJ=1 M=.33 TT=50.1N)
* Fuji 12.2 Volt  1 Watt  Zener Diode  07-02-1993
