
*SRC=EQB0130;EQB0130;Diodes;Zener 10V-50V;30V 1W
.MODEL EQB0130 D (IS=927P RS=17.4 N=1 BV=29.84 IBV=10M
+ CJO=46.6P VJ=1 M=.33 TT=50.1N)
* Fuji 30 Volt  1 Watt  Zener Diode  07-02-1993
