
*SRC=EQB0115;EQB0115;Diodes;Zener 10V-50V;15V 1W
.MODEL EQB0115 D (IS=23.5F RS=3.7 N=1 BV=14.93 IBV=20M
+ CJO=78.3P VJ=1 M=.33 TT=50.1N)
* Fuji 15 Volt  1 Watt  Zener Diode  07-02-1993
