
*SRC=EQB0111;EQB0111;Diodes;Zener 10V-50V;11.1V 1W
.MODEL EQB0111 D (IS=15.1F RS=3.13 N=1 BV=11.01 IBV=30M
+ CJO=100P VJ=1 M=.33 TT=50.1N)
* Fuji 11.1 Volt  1 Watt  Zener Diode  07-02-1993
