
*SRC=EQB0109;EQB0109;Diodes;Zener <=10V;8.8V 1W
.MODEL EQB0109 D (IS=4.77F RS=1.63 N=1 BV=8.755 IBV=30M
+ CJO=83.5P VJ=.75 M=.33 TT=50.1N)
* Fuji 8.8 Volt  1 Watt  Zener Diode  07-02-1993
