
*SRC=EQB0121;EQB0121;Diodes;Zener 10V-50V;21.2V 1W
.MODEL EQB0121 D (IS=59.7F RS=4.91 N=1 BV=21.16 IBV=10M
+ CJO=59.8P VJ=1 M=.33 TT=50.1N)
* Fuji 21.2 Volt  1 Watt  Zener Diode  07-02-1993
