
*SRC=EQB0122;EQB0122;Diodes;Zener 10V-50V;22.4V 1W
.MODEL EQB0122 D (IS=411F RS=7.41 N=1 BV=22.33 IBV=10M
+ CJO=57.4P VJ=1 M=.33 TT=50.1N)
* Fuji 22.4 Volt  1 Watt  Zener Diode  07-02-1993
