
*SRC=EQB0133;EQB0133;Diodes;Zener 10V-50V;33.5V 1W
.MODEL EQB0133 D (IS=5.19N RS=22.4 N=1 BV=33.29 IBV=10M
+ CJO=43.3P VJ=1 M=.33 TT=50.1N)
* Fuji 33.5 Volt  1 Watt  Zener Diode  07-02-1993
