
*SRC=EQB0113;EQB0113;Diodes;Zener 10V-50V;13.2V 1W
.MODEL EQB0113 D (IS=32.8F RS=4.13 N=1 BV=13.08 IBV=30M
+ CJO=87P VJ=1 M=.33 TT=50.1N)
* Fuji 13.2 Volt  1 Watt  Zener Diode  07-02-1993
