
*SRC=EQB0114;EQB0114;Diodes;Zener 10V-50V;14V 1W
.MODEL EQB0114 D (IS=23.5F RS=3.7 N=1 BV=13.93 IBV=20M
+ CJO=82.8P VJ=1 M=.33 TT=50.1N)
* Fuji 14 Volt  1 Watt  Zener Diode  07-02-1993
