
*SRC=EQB0106;EQB0106;Diodes;Zener 10V-50V;6V 1W
.MODEL EQB0106 D (IS=4.77F RS=1.63 N=1 BV=5.953 IBV=30M
+ CJO=148P VJ=.75 M=.33 TT=50.1N)
* Fuji 6 Volt  1 Watt  Zener Diode  07-02-1993
