
*SRC=TVS324;TVS324;Diodes;Zener 10V-50V;28.4V 3W
.MODEL TVS324 D (IS=389N RS=40.1 N=1 BV=28.09 IBV=1M
+ CJO=410P VJ=.75 M=.333 TT=21.6U)
* Unitrode 28.4 Volt  3 Watt  Zener Diode  10-12-1991
