
*SRC=TVS312;TVS312;Diodes;Zener 10V-50V;13.8V 3W
.MODEL TVS312 D (IS=389N RS=7.31 N=1 BV=13.48 IBV=1M
+ CJO=500P VJ=.75 M=.333 TT=21.6U)
* Unitrode 13.8 Volt  3 Watt  Zener Diode  10-12-1991
