
*SRC=TVS328;TVS328;Diodes;Zener 10V-50V;30.7V 3W
.MODEL TVS328 D (IS=389N RS=45.7 N=1 BV=30.39 IBV=1M
+ CJO=390P VJ=.75 M=.333 TT=21.6U)
* Unitrode 30.7 Volt  3 Watt  Zener Diode  10-12-1991
