
*SRC=TVS430;TVS430;Diodes;Zener >50V;342V 3W
.MODEL TVS430 D (IS=389N RS=318 N=1 BV=341.8 IBV=1M
+ CJO=100P VJ=.75 M=.333 TT=21.6U)
* Unitrode 342 Volt  3 Watt  Zener Diode  10-12-1991
