
*SRC=TVS510;TVS510;Diodes;Zener 10V-50V;11.1V 5W
.MODEL TVS510 D (IS=1.29U RS=10.2 N=1 BV=10.78 IBV=1M
+ CJO=1.98N VJ=.75 M=.333 TT=36U)
* Unitrode 11.1 Volt  5 Watt  Zener Diode  10-12-1991
