
*SRC=TVS318;TVS318;Diodes;Zener 10V-50V;20.4V 3W
.MODEL TVS318 D (IS=389N RS=21.5 N=1 BV=20.09 IBV=1M
+ CJO=430P VJ=.75 M=.333 TT=21.6U)
* Unitrode 20.4 Volt  3 Watt  Zener Diode  10-12-1991
