
*SRC=TVS310;TVS310;Diodes;Zener 10V-50V;11.1V 3W
.MODEL TVS310 D (IS=389N RS=4.25 N=1 BV=10.78 IBV=1M
+ CJO=550P VJ=.75 M=.333 TT=21.6U)
* Unitrode 11.1 Volt  3 Watt  Zener Diode  10-12-1991
