
*SRC=TVS315;TVS315;Diodes;Zener 10V-50V;16.7V 3W
.MODEL TVS315 D (IS=389N RS=11.2 N=1 BV=16.39 IBV=1M
+ CJO=450P VJ=.75 M=.333 TT=21.6U)
* Unitrode 16.7 Volt  3 Watt  Zener Diode  10-12-1991
