
*SRC=TVS410;TVS410;Diodes;Zener >50V;111V 3W
.MODEL TVS410 D (IS=389N RS=198 N=1 BV=110.7 IBV=1M
+ CJO=280P VJ=.75 M=.333 TT=21.6U)
* Unitrode 111 Volt  3 Watt  Zener Diode  10-12-1991
