
*SRC=TVS420;TVS420;Diodes;Zener >50V;234V 3W
.MODEL TVS420 D (IS=389N RS=259 N=1 BV=233.7 IBV=1M
+ CJO=210P VJ=.75 M=.333 TT=21.6U)
* Unitrode 234 Volt  3 Watt  Zener Diode  10-12-1991
