
*SRC=TVS518;TVS518;Diodes;Zener 10V-50V;20.4V 5W
.MODEL TVS518 D (IS=1.29U RS=23 N=1 BV=20.09 IBV=1M
+ CJO=1.26N VJ=.75 M=.333 TT=36U)
* Unitrode 20.4 Volt  5 Watt  Zener Diode  10-12-1991
