
*SRC=ZC825A;ZC825A;Diodes;Zener 10V-50V;45V .2W
.MODEL ZC825A D IS=18.16E-15 N=1.0550 RS=0.0771 XTI=3
+ EG=1.11 CJO=130.5E-12 M=0.9 VJ=2.017 FC=0.5
+ BV=45.1 IBV=51.74E-3 TT=261.1E-9
* Zetex 45 Volt  .2 Watt  Zener Diode  06-15-1993
