
*SRC=ZC823A;ZC823A;Diodes;Zener 10V-50V;45V .2W
.MODEL ZC823A D IS=3.880E-15 N=1.0380 RS=0.1100 XTI=3
+ EG=1.11 CJO=62.97E-12 M=0.9 VJ=1.942 FC=0.5
+ BV=45.1 IBV=51.74E-3 TT=161.6E-9
* Zetex 45 Volt  .2 Watt  Zener Diode  06-15-1993
