
*SRC=ZC830A;ZC830A;Diodes;Zener 10V-50V;45V .2W
.MODEL ZC830A D IS=5.355E-15 N=1.08 RS=0.1161 XTI=3
+ EG=1.11 CJO=19.15E-12 M=0.9 VJ=2.164 FC=0.5
+ BV=45.1 IBV=51.74E-3 TT=129.8E-9
* Zetex 45 Volt  .2 Watt  Zener Diode  06-15-1993
