
*SRC=BZD2320;BZD2320;Diodes;Zener 10V-50V;20V 2.5W
.MODEL BZD2320 D (IS=830P RS=4.96 N=1 BV=19.88 IBV=25M
+ CJO=133P VJ=1 M=.33 TT=50.1N)
* Philips 20 Volt  2.5 Watt  Zener Diode  06-16-1993
