
*SRC=BZD238V2;BZD238V2;Diodes;Zener <=10V;8.2V 2.5W
.MODEL BZD238V2 D (IS=1.66F RS=.8 N=1 BV=8.124 IBV=.1
+ CJO=232P VJ=.75 M=.33 TT=50.1N)
* Philips 8.2 Volt  2.5 Watt  Zener Diode  06-16-1993
