
*SRC=BZD23180;BZD23180;Diodes;Zener >50V;180V 2.5W
.MODEL BZD23180 D (IS=830P RS=174 N=1 BV=179.2 IBV=5M
+ CJO=28.2P VJ=1 M=.33 TT=50.1N)
* Philips 180 Volt  2.5 Watt  Zener Diode  06-16-1993
