
*SRC=BZD2311;BZD2311;Diodes;Zener 10V-50V;11V 2.5W
.MODEL BZD2311 D (IS=830P RS=3.48 N=1 BV=10.83 IBV=50M
+ CJO=231P VJ=1 M=.33 TT=50.1N)
* Philips 11 Volt  2.5 Watt  Zener Diode  06-16-1993
