
*SRC=BZD2318;BZD2318;Diodes;Zener 10V-50V;18V 2.5W
.MODEL BZD2318 D (IS=830P RS=4.96 N=1 BV=17.88 IBV=25M
+ CJO=147P VJ=1 M=.33 TT=50.1N)
* Philips 18 Volt  2.5 Watt  Zener Diode  06-16-1993
