
*SRC=BZD23150;BZD23150;Diodes;Zener >50V;150V 2.5W
.MODEL BZD23150 D (IS=830P RS=124 N=1 BV=149.4 IBV=5M
+ CJO=30.8P VJ=1 M=.33 TT=50.1N)
* Philips 150 Volt  2.5 Watt  Zener Diode  06-16-1993
