
*SRC=BZD2356;BZD2356;Diodes;Zener >50V;56V 2.5W
.MODEL BZD2356 D (IS=830P RS=22.4 N=1 BV=55.80 IBV=10M
+ CJO=57.4P VJ=1 M=.33 TT=50.1N)
* Philips 56 Volt  2.5 Watt  Zener Diode  06-16-1993
