
*SRC=BZD2315;BZD2315;Diodes;Zener 10V-50V;15V 2.5W
.MODEL BZD2315 D (IS=830P RS=4.48 N=1 BV=14.78 IBV=50M
+ CJO=173P VJ=1 M=.33 TT=50.1N)
* Philips 15 Volt  2.5 Watt  Zener Diode  06-16-1993
