
*SRC=BZD2312;BZD2312;Diodes;Zener 10V-50V;12V 2.5W
.MODEL BZD2312 D (IS=830P RS=3.48 N=1 BV=11.83 IBV=50M
+ CJO=213P VJ=1 M=.33 TT=50.1N)
* Philips 12 Volt  2.5 Watt  Zener Diode  06-16-1993
