
*SRC=BZD2313;BZD2313;Diodes;Zener 10V-50V;13V 2.5W
.MODEL BZD2313 D (IS=830P RS=4.48 N=1 BV=12.78 IBV=50M
+ CJO=197P VJ=1 M=.33 TT=50.1N)
* Philips 13 Volt  2.5 Watt  Zener Diode  06-16-1993
