
*SRC=BZD2316;BZD2316;Diodes;Zener 10V-50V;16V 2.5W
.MODEL BZD2316 D (IS=830P RS=4.96 N=1 BV=15.88 IBV=25M
+ CJO=163P VJ=1 M=.33 TT=50.1N)
* Philips 16 Volt  2.5 Watt  Zener Diode  06-16-1993
