
*SRC=BZD2351;BZD2351;Diodes;Zener >50V;51V 2.5W
.MODEL BZD2351 D (IS=830P RS=22.4 N=1 BV=50.80 IBV=10M
+ CJO=61.5P VJ=1 M=.33 TT=50.1N)
* Philips 51 Volt  2.5 Watt  Zener Diode  06-16-1993
