
*SRC=BZD23120;BZD23120;Diodes;Zener >50V;120V 2.5W
.MODEL BZD23120 D (IS=830P RS=74.8 N=1 BV=119.6 IBV=5M
+ CJO=34.8P VJ=1 M=.33 TT=50.1N)
* Philips 120 Volt  2.5 Watt  Zener Diode  06-16-1993
