
*SRC=BZD23270;BZD23270;Diodes;Zener >50V;270V 2.5W
.MODEL BZD23270 D (IS=830P RS=437 N=1 BV=269.2 IBV=2M
+ CJO=23.8P VJ=1 M=.33 TT=50.1N)
* Philips 270 Volt  2.5 Watt  Zener Diode  06-16-1993
