
*SRC=BZD23100;BZD23100;Diodes;Zener >50V;100V 2.5W
.MODEL BZD23100 D (IS=830P RS=54.8 N=1 BV=99.77 IBV=5M
+ CJO=38.7P VJ=1 M=.33 TT=50.1N)
* Philips 100 Volt  2.5 Watt  Zener Diode  06-16-1993
