
*SRC=BZD23240;BZD23240;Diodes;Zener >50V;240V 2.5W
.MODEL BZD23240 D (IS=830P RS=387 N=1 BV=239.3 IBV=2M
+ CJO=24.9P VJ=1 M=.33 TT=50.1N)
* Philips 240 Volt  2.5 Watt  Zener Diode  06-16-1993
