
*SRC=BZD2362;BZD2362;Diodes;Zener >50V;62V 2.5W
.MODEL BZD2362 D (IS=830P RS=22.4 N=1 BV=61.80 IBV=10M
+ CJO=53.3P VJ=1 M=.33 TT=50.1N)
* Philips 62 Volt  2.5 Watt  Zener Diode  06-16-1993
