
*SRC=1N2980A;ZN2980A;Diodes;Zener 10V-50V;16V 10W
.MODEL ZN2980A D (IS=767F RS=1.83 N=1 BV=15.72 IBV=.155
+ CJO=609P VJ=1 M=.33 TT=50.1N)
* Motorola 16 Volt  10 Watt  Zener Diode  06-15-1993
