
*SRC=1N2975A;ZN2975A;Diodes;Zener 10V-50V;11V 10W
.MODEL ZN2975A D (IS=24.6F RS=1.38 N=1 BV=10.68 IBV=.23
+ CJO=879P VJ=1 M=.33 TT=50.1N)
* Motorola 11 Volt  10 Watt  Zener Diode  06-15-1993
