
*SRC=1N2992A;ZN2992A;Diodes;Zener 10V-50V;30V 10W
.MODEL ZN2992A D (IS=331P RS=5.1 N=1 BV=29.68 IBV=65M
+ CJO=331P VJ=1 M=.33 TT=50.1N)
* Motorola 30 Volt  10 Watt  Zener Diode  06-15-1993
