
*SRC=1N2997A;ZN2997A;Diodes;Zener >50V;51V 10W
.MODEL ZN2997A D (IS=331P RS=6.98 N=1 BV=50.67 IBV=50M
+ CJO=201P VJ=1 M=.33 TT=50.1N)
* Motorola 51 Volt  10 Watt  Zener Diode  06-15-1993
