
*SRC=1N2982A;ZN2982A;Diodes;Zener 10V-50V;18V 10W
.MODEL ZN2982A D (IS=667F RS=1.81 N=1 BV=17.75 IBV=.14
+ CJO=543P VJ=1 M=.33 TT=50.1N)
* Motorola 18 Volt  10 Watt  Zener Diode  06-15-1993
