
*SRC=1N2976A;ZN2976A;Diodes;Zener 10V-50V;12V 10W
.MODEL ZN2976A D (IS=22.6F RS=1.37 N=1 BV=11.71 IBV=.21
+ CJO=807P VJ=1 M=.33 TT=50.1N)
* Motorola 12 Volt  10 Watt  Zener Diode  06-15-1993
