
*SRC=1N2990A;ZN2990A;Diodes;Zener 10V-50V;33V 10W
.MODEL ZN2990A D (IS=331P RS=4.15 N=1 BV=32.70 IBV=75M
+ CJO=303P VJ=1 M=.33 TT=50.1N)
* Motorola 33 Volt  10 Watt  Zener Diode  06-15-1993
