
*SRC=1N2979A;ZN2979A;Diodes;Zener 10V-50V;15V 10W
.MODEL ZN2979A D (IS=18.1F RS=1.34 N=1 BV=14.77 IBV=.17
+ CJO=648P VJ=1 M=.33 TT=50.1N)
* Motorola 15 Volt  10 Watt  Zener Diode  06-15-1993
