
*SRC=1N2996A;ZN2996A;Diodes;Zener 10V-50V;50V 10W
.MODEL ZN2996A D (IS=331P RS=6.98 N=1 BV=49.67 IBV=50M
+ CJO=205P VJ=1 M=.33 TT=50.1N)
* Motorola 50 Volt  10 Watt  Zener Diode  06-15-1993
