
*SRC=1N2998A;ZN2998A;Diodes;Zener >50V;52V 10W
.MODEL ZN2998A D (IS=331P RS=6.98 N=1 BV=51.67 IBV=50M
+ CJO=197P VJ=1 M=.33 TT=50.1N)
* Motorola 52 Volt  10 Watt  Zener Diode  06-15-1993
