
*SRC=1N3014A;ZN3014A;Diodes;Zener >50V;180V 10W
.MODEL ZN3014A D (IS=331P RS=128 N=1 BV=178.2 IBV=14M
+ CJO=67.8P VJ=1 M=.33 TT=50.1N)
* Motorola 180 Volt  10 Watt  Zener Diode  06-15-1993
