
*SRC=1N3002A;ZN3002A;Diodes;Zener >50V;75V 10W
.MODEL ZN3002A D (IS=331P RS=10.2 N=1 BV=74.70 IBV=33M
+ CJO=141P VJ=1 M=.33 TT=50.1N)
* Motorola 75 Volt  10 Watt  Zener Diode  06-15-1993
