
*SRC=1N3006A;ZN3006A;Diodes;Zener >50V;105V 10W
.MODEL ZN3006A D (IS=331P RS=21.4 N=1 BV=104.5 IBV=25M
+ CJO=105P VJ=1 M=.33 TT=50.1N)
* Motorola 105 Volt  10 Watt  Zener Diode  06-15-1993
