
*SRC=1N3010A;ZN3010A;Diodes;Zener >50V;140V 10W
.MODEL ZN3010A D (IS=331P RS=61 N=1 BV=138.9 IBV=18M
+ CJO=82.8P VJ=1 M=.33 TT=50.1N)
* Motorola 140 Volt  10 Watt  Zener Diode  06-15-1993
