
*SRC=1N3004A;ZN3004A;Diodes;Zener >50V;91V 10W
.MODEL ZN3004A D (IS=331P RS=15.5 N=1 BV=90.60 IBV=28M
+ CJO=119P VJ=1 M=.33 TT=50.1N)
* Motorola 91 Volt  10 Watt  Zener Diode  06-15-1993
