
*SRC=1N3003A;ZN3003A;Diodes;Zener >50V;82V 10W
.MODEL ZN3003A D (IS=331P RS=11.6 N=1 BV=81.69 IBV=30M
+ CJO=130P VJ=1 M=.33 TT=50.1N)
* Motorola 82 Volt  10 Watt  Zener Diode  06-15-1993
