
*SRC=1N3007A;ZN3007A;Diodes;Zener >50V;110V 10W
.MODEL ZN3007A D (IS=331P RS=26.3 N=1 BV=109.4 IBV=23M
+ CJO=101P VJ=1 M=.33 TT=50.1N)
* Motorola 110 Volt  10 Watt  Zener Diode  06-15-1993
