
*SRC=1N3008A;ZN3008A;Diodes;Zener >50V;120V 10W
.MODEL ZN3008A D (IS=331P RS=36.2 N=1 BV=119.3 IBV=20M
+ CJO=94.2P VJ=1 M=.33 TT=50.1N)
* Motorola 120 Volt  10 Watt  Zener Diode  06-15-1993
