
*SRC=1N4062;ZN4062;Diodes;Zener 10V-50V;23V 1.5W
.MODEL ZN4062 D (IS=7.79N RS=37.4 N=1 BV=22.63 IBV=10M
+ CJO=76.9P VJ=1 M=.33 TT=50.1N)
* Motorola 23 Volt  1.5 Watt  Zener Diode  06-15-1993
