
*SRC=1N4058;ZN4058;Diodes;Zener 10V-50V;14.6V 1.5W
.MODEL ZN4058 D (IS=7.79N RS=27.4 N=1 BV=14.33 IBV=10M
+ CJO=112P VJ=1 M=.33 TT=50.1N)
* Motorola 14.6 Volt  1.5 Watt  Zener Diode  06-15-1993
