
*SRC=1N4060;ZN4060;Diodes;Zener 10V-50V;18.5V 1.5W
.MODEL ZN4060 D (IS=7.79N RS=27.4 N=1 BV=18.23 IBV=10M
+ CJO=92P VJ=1 M=.33 TT=50.1N)
* Motorola 18.5 Volt  1.5 Watt  Zener Diode  06-15-1993
