
*SRC=1N4085;ZN4085;Diodes;Zener >50V;200V 2.5W
.MODEL ZN4085 D (IS=12.9N RS=1.34K N=1 BV=196.7 IBV=2.5M
+ CJO=26.8P VJ=1 M=.33 TT=50.1N)
* Motorola 200 Volt  2.5 Watt  Zener Diode  06-15-1993
