
*SRC=1N4072;ZN4072;Diodes;Zener >50V;68V 2W
.MODEL ZN4072 D (IS=10.3N RS=224 N=1 BV=66.90 IBV=5M
+ CJO=42.9P VJ=1 M=.33 TT=50.1N)
* Motorola 68 Volt  2 Watt  Zener Diode  06-15-1993
