
*SRC=1N4475;ZN4475;Diodes;Zener 10V-50V;27V 1W
.MODEL ZN4475 D (IS=222P RS=17.2 N=1 BV=26.84 IBV=9.5M
+ CJO=50.2P VJ=1 M=.33 TT=50.1N)
* Motorola 27 Volt Zener Diode  12-11-1995
