
*SRC=1N4746;ZN4746;Diodes;Zener 10V-50V;18V 1W
.MODEL ZN4746 D (IS=419F RS=9.15 N=1 BV=17.88 IBV=14M
+ CJO=67.8P VJ=1 M=.33 TT=50.1N)
* Motorola 18 Volt  1 Watt  Zener Diode  06-15-1993
