
*SRC=1N4757;ZN4757;Diodes;Zener >50V;51V 1W
.MODEL ZN4757 D (IS=2.67N RS=59.8 N=1 BV=50.72 IBV=5M
+ CJO=33.6P VJ=1 M=.33 TT=50.1N)
* Motorola 51 Volt  1 Watt  Zener Diode  06-15-1993
