
*SRC=1N4753;ZN4753;Diodes;Zener 10V-50V;36V 1W
.MODEL ZN4753 D (IS=2.67N RS=31.3 N=1 BV=35.79 IBV=7M
+ CJO=41.4P VJ=1 M=.33 TT=50.1N)
* Motorola 36 Volt  1 Watt  Zener Diode  06-15-1993
