
*SRC=1N4747;ZN4747;Diodes;Zener 10V-50V;20V 1W
.MODEL ZN4747 D (IS=1.65P RS=10.9 N=1 BV=19.87 IBV=12.5M
+ CJO=62.5P VJ=1 M=.33 TT=50.1N)
* Motorola 20 Volt  1 Watt  Zener Diode  06-15-1993
