
*SRC=1N4739;ZN4739;Diodes;Zener <=10V;9.1V 1W
.MODEL ZN4739 D (IS=1.46F RS=1.82 N=1 BV=9.053 IBV=28M
+ CJO=79.4P VJ=.75 M=.33 TT=50.1N)
* Motorola 9.1 Volt  1 Watt  Zener Diode  06-15-1993
