
*SRC=1N6466;ZN6466;Diodes;Zener 10V-50V;33V 2.5W
.MODEL ZN6466 D (IS=2.07U RS=45.2 N=1 BV=32.69 IBV=1M
+ CJO=1.88N VJ=.75 M=.333 TT=7.2U)
* Unitrode 33 Volt  2.5 Watt  Zener Diode  10-12-1991
