
*SRC=BZT03150;BZT03150;Diodes;Zener >50V;150V 3.25W
.MODEL BZT03150 D (IS=11N RS=124 N=1 BV=149.4 IBV=5M
+ CJO=35.6P VJ=1 M=.33 TT=50.1N)
* Philips 150 Volt  3.25 Watt  Zener Diode  06-16-1993
