
*SRC=BZT03180;BZT03180;Diodes;Zener >50V;180V 3.25W
.MODEL BZT03180 D (IS=11N RS=174 N=1 BV=179.2 IBV=5M
+ CJO=32.1P VJ=1 M=.33 TT=50.1N)
* Philips 180 Volt  3.25 Watt  Zener Diode  06-16-1993
