
*SRC=BZT03270;BZT03270;Diodes;Zener >50V;270V 3.25W
.MODEL BZT03270 D (IS=11N RS=437 N=1 BV=269.2 IBV=2M
+ CJO=26.4P VJ=1 M=.33 TT=50.1N)
* Philips 270 Volt  3.25 Watt  Zener Diode  06-16-1993
