
*SRC=BZT0318;BZT0318;Diodes;Zener 10V-50V;18V 3.25W
.MODEL BZT0318 D (IS=11N RS=4.96 N=1 BV=17.88 IBV=25M
+ CJO=186P VJ=1 M=.33 TT=50.1N)
* Philips 18 Volt  3.25 Watt  Zener Diode  06-16-1993
