
*SRC=BZT0324;BZT0324;Diodes;Zener 10V-50V;24V 3.25W
.MODEL BZT0324 D (IS=11N RS=5.96 N=1 BV=23.86 IBV=25M
+ CJO=143P VJ=1 M=.33 TT=50.1N)
* Philips 24 Volt  3.25 Watt  Zener Diode  06-16-1993
