
*SRC=BZT0315;BZT0315;Diodes;Zener 10V-50V;15V 3.25W
.MODEL BZT0315 D (IS=11N RS=4.48 N=1 BV=14.78 IBV=50M
+ CJO=220P VJ=1 M=.33 TT=50.1N)
* Philips 15 Volt  3.25 Watt  Zener Diode  06-16-1993
