
*SRC=BZT0382;BZT0382;Diodes;Zener >50V;82V 3.25W
.MODEL BZT0382 D (IS=11N RS=27.4 N=1 BV=81.76 IBV=10M
+ CJO=52.6P VJ=1 M=.33 TT=50.1N)
* Philips 82 Volt  3.25 Watt  Zener Diode  06-16-1993
