
*SRC=BZT039V1;BZT039V1;Diodes;Zener <=10V;9.1V 3.25W
.MODEL BZT039V1 D (IS=372F RS=1.48 N=1 BV=9.030 IBV=50M
+ CJO=258P VJ=.75 M=.33 TT=50.1N)
* Philips 9.1 Volt  3.25 Watt  Zener Diode  06-16-1993
