
*SRC=BZT0327;BZT0327;Diodes;Zener 10V-50V;27V 3.25W
.MODEL BZT0327 D (IS=11N RS=5.96 N=1 BV=26.86 IBV=25M
+ CJO=129P VJ=1 M=.33 TT=50.1N)
* Philips 27 Volt  3.25 Watt  Zener Diode  06-16-1993
