
*SRC=BZT0322;BZT0322;Diodes;Zener 10V-50V;22V 3.25W
.MODEL BZT0322 D (IS=11N RS=4.96 N=1 BV=21.88 IBV=25M
+ CJO=155P VJ=1 M=.33 TT=50.1N)
* Philips 22 Volt  3.25 Watt  Zener Diode  06-16-1993
