
*SRC=BZT03220;BZT03220;Diodes;Zener >50V;220V 3.25W
.MODEL BZT03220 D (IS=11N RS=337 N=1 BV=219.4 IBV=2M
+ CJO=29P VJ=1 M=.33 TT=50.1N)
* Philips 220 Volt  3.25 Watt  Zener Diode  06-16-1993
