
*SRC=BZT0347;BZT0347;Diodes;Zener 10V-50V;47V 3.25W
.MODEL BZT0347 D (IS=11N RS=21.4 N=1 BV=46.80 IBV=10M
+ CJO=80.7P VJ=1 M=.33 TT=50.1N)
* Philips 47 Volt  3.25 Watt  Zener Diode  06-16-1993
