
*SRC=BZT0391;BZT0391;Diodes;Zener >50V;91V 3.25W
.MODEL BZT0391 D (IS=11N RS=54.8 N=1 BV=90.77 IBV=5M
+ CJO=48.9P VJ=1 M=.33 TT=50.1N)
* Philips 91 Volt  3.25 Watt  Zener Diode  06-16-1993
