
*SRC=BZT03130;BZT03130;Diodes;Zener >50V;130V 3.25W
.MODEL BZT03130 D (IS=11N RS=104 N=1 BV=129.5 IBV=5M
+ CJO=38.7P VJ=1 M=.33 TT=50.1N)
* Philips 130 Volt  3.25 Watt  Zener Diode  06-16-1993
