
*SRC=BZT0356;BZT0356;Diodes;Zener >50V;56V 3.25W
.MODEL BZT0356 D (IS=11N RS=22.4 N=1 BV=55.80 IBV=10M
+ CJO=70.1P VJ=1 M=.33 TT=50.1N)
* Philips 56 Volt  3.25 Watt  Zener Diode  06-16-1993
