
*SRC=BZT03200;BZT03200;Diodes;Zener >50V;200V 3.25W
.MODEL BZT03200 D (IS=11N RS=194 N=1 BV=199.1 IBV=5M
+ CJO=30.4P VJ=1 M=.33 TT=50.1N)
* Philips 200 Volt  3.25 Watt  Zener Diode  06-16-1993
