
*SRC=BZT03160;BZT03160;Diodes;Zener >50V;160V 3.25W
.MODEL BZT03160 D (IS=11N RS=144 N=1 BV=159.3 IBV=5M
+ CJO=34.3P VJ=1 M=.33 TT=50.1N)
* Philips 160 Volt  3.25 Watt  Zener Diode  06-16-1993
