
*SRC=BZT0336;BZT0336;Diodes;Zener 10V-50V;36V 3.25W
.MODEL BZT0336 D (IS=11N RS=18.4 N=1 BV=35.83 IBV=10M
+ CJO=100P VJ=1 M=.33 TT=50.1N)
* Philips 36 Volt  3.25 Watt  Zener Diode  06-16-1993
