
*SRC=20ETS12AVG;20ETS12AVG;Diodes;Rectifier >5A;1200V 20A
.MODEL 20ETS12AVG d
+ IS=3.14987e-10 RS=0.01 N=1.37516 EG=1.06967
+ XTI=4 BV=1200 IBV=0.0001 CJO=1e-11
+ VJ=0.7 M=0.5 FC=0.5 TT=1e-09
+ KF=0 AF=1
*IR rectifier diode
