
*SRC=32CTQ030;32CTQ030;Diodes;Schottky;30A 30V
.MODEL 32CTQ030 d
+ IS=2.21746e-11 RS=0.01 N=0.5 EG=0.6
+ XTI=2.38672 BV=30 IBV=0.00175 CJO=2.11811e-09
+ VJ=1.5 M=0.499425 FC=0.5 TT=0
+ KF=0 AF=1
*IR Schottky diode
