
*SRC=6TQ045;6TQ045;Diodes;Schottky;6A 45V
.MODEL 6TQ045 d
+ IS=1.1357e-08 RS=0.0148614 N=0.895316 EG=1.3
+ XTI=4 BV=45 IBV=0.0001 CJO=7.53573e-10
+ VJ=1.5 M=0.502931 FC=0.5 TT=0
+ KF=0 AF=1
*IR Schottky diode
