
*SRC=8EQ045;8EQ045;Diodes;Rectifier >5A;45V 10A
.MODEL 8EQ045 d
+ IS=1.8026e-05 RS=0.0138308 N=1.50131 EG=0.689509
+ XTI=4 BV=45 IBV=0.005 CJO=1.98488e-09
+ VJ=0.711167 M=0.477336 FC=0.5 TT=0
+ KF=0 AF=1
*IR rectifier diode
