
*SRC=8EWS08;8EWS08;Diodes;Rectifier >5A;800V 8A
.MODEL 8EWS08 d
+ IS=1.04304e-07 RS=0.0103888 N=2 EG=1.28885
+ XTI=3.00461 BV=800 IBV=0.0001 CJO=1e-11
+ VJ=0.7 M=0.5 FC=0.5 TT=1e-09
+ KF=0 AF=1
*IR rectifier diode
