
*SRC=8EWS12;8EWS12;Diodes;Rectifier >5A;1200V 8A
.MODEL 8EWS12 d
+ IS=1e-07 RS=0.0115955 N=1.9747 EG=0.6
+ XTI=0.5 BV=1200 IBV=0.0001 CJO=1e-11
+ VJ=0.7 M=0.5 FC=0.5 TT=1e-09
+ KF=0 AF=1
*IR rectifier diode
