
*SRC=BA221;BA221;Diodes;Switching;30V 400mA
.MODEL BA221 D (IS=2.75N RS=.31 N=1.99 BV=43.3 IBV=150N
+ CJO=2.35P VJ=.75 M=.333 TT=3.76N)
* Philips   30 Volt  .2 Amp  .004 us  Si Diode  11-23-1990
