
*SRC=BAV18;BAV18;Diodes;Rectifier <=5A;50V 250mA
.MODEL BAV18 D (IS=4.31N RS=.491 N=2 BV=66.6 IBV=100N
+ CJO=1.5P VJ=.65 M=.233 TT=43.2N)
* Philips   50 Volt  .25 Amp  5E-08 us  Si Diode  11-23-1990
