
*SRC=BA316;BA316;Diodes;Switching;10V 225mA
.MODEL BA316 D (IS=25.1N RS=1.08 N=2 BV=13.3 IBV=20N
+ CJO=1.8P VJ=.75 M=.333 TT=3.76N)
* Philips   10 Volt  .1 Amp  .004 us  Si Diode  11-23-1990
