
*SRC=BAT81;BAT81;Diodes;Schottky;40V 30mA
.MODEL BAT81 D (IS=9.98E-08 N=1.47 BV=5.33E+01 IBV=1.00E-07
+ RS=1.02E+01 CJO=1.31E-12 VJ=.75 M=.333 XTI=2 EG=0.69 TT=1.44E-11)
* Philips  40 Volt   0.03 Amp   Si Schottky   Diode  07-06-1990
