
*SRC=BB505;BB505;Diodes;Varactors;30V 17.5pf
*HELP issyntax.hlp "Varactor Diodes"
.MODEL BB505 D (IS=26.4P RS=.491 N=1.72 BV=39.9 IBV=10N
+ CJO=24.7P VJ=.361 M=.267 TT=144N)
* Siemens  30 Volt  20M Amp  CT=17.5P @1V Si Diode  05-05-1991
