
*SRC=MBR0530;MBR0530;Diodes;Schottky;Motorola 30V 0.5A 3us Schottky 
.MODEL MBR0530 D (IS=710P RS=84M N=1.7 BV=30 IBV=130U XTI=2 EG=.69
+ CJO=152P VJ=0.75 M=0.333 TT=4.32U)
