
*SRC=MBR115P;MBR115P;Diodes;Schottky;15V 1A
.MODEL MBR115P D (IS=1.65E-05 N=1.34 BV=2.00E+01 IBV=2.50E-04
+ RS=4.47E-02 CJO=2.31E-10 VJ=.75 M=.5 XTI=2 EG=0.69 TT=7.20E-11)
* Motorola 15 Volt   1.00 Amp   Si Schottky   Diode  07-05-1990
