
*SRC=MBR130P;MBR130P;Diodes;Schottky;30V 1A
.MODEL MBR130P D (IS=1.65E-05 N=1.34 BV=4.00E+01 IBV=5.00E-04
+ RS=4.47E-02 CJO=1.84E-10 VJ=.75 M=.55 TT=7.20E-11 XTI=2 EG=.69)
* Motorola 30 Volt   1.00 Amp   Si Schottky   Diode  07-05-1990
