
*SRC=BYV28-15;BYV28-15;Diodes;Rectifier <=5A;150V 3.5A
.MODEL BYV28-15 D (IS=177N RS=54.8M N=1.89 BV=200 IBV=1U
+ CJO=198P VJ=.2073 M=.4150 TT=36N)
* Philips   150 Volt  3.5 Amp  .025 us  Si Diode  04-22-1991
