
*SRC=BYV27-150;BYV27-15;Diodes;Rectifier <=5A;150V 2A
.MODEL BYV27-15 D (IS=176N RS=72.3M N=2 BV=200 IBV=1U
+ CJO=93.4P VJ=.5447 M=.3492 TT=28.8N)
* Philips   150 Volt  2 Amp  .02 us  Si Diode  04-22-1991
