
*SRC=BZX79A3.6;BZX793V6;Diodes;Zener <=10V;3.6V .5W
.MODEL BZX793V6 D(RS=13.094 BV=3.2381  
+ CJO=554.97P TT=50N M=.33 VJ=.75 IS=1.0E-10 N=1.27 IBV=5MA) 
* Philips 3.6 Volt Zener
