
*SRC=BZX79A9.1;BZX799V1;Diodes;Zener <=10V;9.1V .5W
.MODEL BZX799V1 D(RS=3.7754 BV=9.0481  
+ CJO=805.95P TT=20N N=2 IS=3.8E-09 IBV=3M) 
* Philips 9.1 Volt Zener
