
*SRC=BZX79A3.3;BZX793V3;Diodes;Zener <=10V;3.3V .5W
.MODEL BZX793V3 D(RS=13.650 BV=3.0270  
+ CJO=582.57P TT=50N M=.33 VJ=.75 IS=1.0E-10 N=1.27 IBV=5MA) 
* Philips 3.3 Volt Zener
