
*SRC=BZX79A8.2;BZX798V2;Diodes;Zener <=10V;8.2V .5W
.MODEL BZX798V2 D(RS=3.1128 BV=8.1525  
+ CJO=863.74P TT=20N N=2 IS=3.8E-09 IBV=4M) 
* Philips 8.2 Volt Zener
