
*SRC=BZX79A36;BZX79A36;Diodes;Zener 10V-50V;36V .5W
.MODEL BZX79A36 D(RS=33.640 BV=35.883  
+ CJO=322.94P TT=20N N=2 IS=3.8E-09 IBV=1.0E-4) 
* Philips 36 Volt Zener
