
*SRC=BZX79A3.9;BZX793V9;Diodes;Zener <=10V;3.9V .5W
.MODEL BZX793V9 D(RS=11.838 BV=3.6632  
+ CJO=507.57P TT=50N M=.33 VJ=.75 IS=1.0E-10 N=1.27 IBV=5MA) 
* Philips 3.9 Volt Zener
