
*SRC=BZX79A91;BZX79A91;Diodes;Zener >50V;91V .5W
.MODEL BZX79A91 D(RS=216.22 BV=90.703  
+ CJO=174.30P TT=20N N=2 IS=3.8E-09 IBV=1.0E-5)
* Philips 91 Volt Zener
