
*SRC=BZX79A6.2;BZX796V2;Diodes;Zener <=10V;6.2V .5W
.MODEL BZX796V2 D(RS=4.6846 BV=6.1063  
+ CJO=346.26P TT=50N M=.33 VJ=.75 IS=1.0E-10 N=1.27 IBV=5MA) 
* Philips 6.2 Volt Zener
