
*SRC=BZX79A62;BZX79A62;Diodes;Zener >50V;62V .5W
.MODEL BZX79A62 D(RS=89.038 BV=61.820  
+ CJO=224.97P TT=20N N=2 IS=3.8E-09 IBV=5.0E-5) 
* Philips 62 Volt Zener
