
*SRC=BZX79A11;BZX79A11;Diodes;Zener 10V-50V;11V .5W
.MODEL BZX79A11 D(RS=5.2600 BV=10.940  
+ CJO=710.46P TT=20N N=2 IS=3.8E-09 IBV=1M) 
* Philips 11 Volt Zener
