
*SRC=BZX79A5.6;BZX795V6;Diodes;Zener <=10V;5.6V .5W
.MODEL BZX795V6 D(RS=6.1685 BV=5.4766  
+ CJO=376.59P TT=50N M=.33 VJ=.75 IS=1.0E-10 N=1.27 IBV=5MA) 
* Philips 5.6 Volt Zener
