
*SRC=BZX79A20;BZX79A20;Diodes;Zener 10V-50V;20V .5W
.MODEL BZX79A20 D(RS=13.647 BV=19.915  
+ CJO=477.40P TT=20N N=2 IS=3.8E-09 IBV=7.0E-4) 
* Philips 20 Volt Zener
