
*SRC=BZX79A10;BZX79A10;Diodes;Zener <=10V;10V .5W
.MODEL BZX79A10 D(RS=4.4645 BV=9.9442  
+ CJO=756.95P TT=20N N=2 IS=3.8E-09 IBV=1M) 
* Philips 10  Volt Zener
