
*SRC=BZX79A7.5;BZX797V5;Diodes;Zener <=10V;7.5V .5W
.MODEL BZX797V5 D(RS=2.6167 BV=7.4564  
+ CJO=916.54P TT=20N N=2 IS=3.8E-09 IBV=5.0M) 
* Philips 7.5 Volt Zener
