
*SRC=BZX79A24;BZX79A24;Diodes;Zener 10V-50V;24V .5W
.MODEL BZX79A24 D(RS=18.014 BV=23.906  
+ CJO=422.89P TT=20N N=2 IS=3.8E-09 IBV=5.0E-4) 
* Philips 24 Volt Zener
