
*SRC=BZX79A2.7;BZX792V7;Diodes;Zener <=10V;2.7V .5W
.MODEL BZX792V7 D(RS=14.877 BV=2.4025  
+ CJO=687.46P TT=50N M=.33 VJ=.75 IS=1.0E-10 N=1.27 IBV=5MA)
* Philips 2.7 Volt Zener
