
*SRC=BZX79A27;BZX79A27;Diodes;Zener 10V-50V;27V .5W
.MODEL BZX79A27 D(RS=21.545 BV=26.900  
+ CJO=391.03P TT=20N N=2 IS=3.8E-09 IBV=4.0E-4) 
* Philips 27 Volt Zener
