
*SRC=BZX79A16;BZX79A16;Diodes;Zener 10V-50V;16V .5W
.MODEL BZX79A16 D(RS=9.6639 BV=15.925  
+ CJO=553.77P TT=20N N=2 IS=3.8E-09 IBV=9.0E-4)
* Philips 16 Volt Zener
