
*SRC=BZX79A2.4;BZX792V4;Diodes;Zener <=10V;2.4V .5W
.MODEL BZX792V4 D(RS=15.156  BV=2.0969 
+ CJO=757.62P TT=50N M=.33 VJ=.75 IS=1.0E-10 N=1.27 IBV=6MA) 
* Philips 2.4 Volt Zener
