
*SRC=BZX79A15;BZX79A15;Diodes;Zener 10V-50V;15V .5W
.MODEL BZX79A15 D(RS=8.7297 BV=14.927  
+ CJO=578.05P TT=20N N=2 IS=3.8E-09 IBV=1M) 
* Philips 15 Volt Zener
