
*SRC=1N1184;DN1184;Diodes;Rectifier >5A;100V 35A
.MODEL DN1184 D (IS=23.4N RS=1.75M N=1.61 BV=133.3 IBV=4M
+ CJO=4.4N VJ=.75 M=.333 TT=144U)
* Motorola  100 Volt  20 Amp  100 us  Si Diode  11-23-1990
