
*SRC=1N1190;DN1190;Diodes;Rectifier >5A;600V 35A
.MODEL DN1190 D (IS=23.4N RS=1.75M N=1.61 BV=900 IBV=4M
+ CJO=4.4N VJ=.75 M=.333 TT=144U)
* Motorola  600 Volt  20 Amp  100 us  Si Diode  11-23-1990
