
*SRC=1N1187;DN1187;Diodes;Rectifier >5A;300V 35A
.MODEL DN1187 D (IS=23.4N RS=1.75M N=1.61 BV=400 IBV=4M
+ CJO=4.4N VJ=.75 M=.333 TT=144U)
* Motorola  300 Volt  20 Amp  100 us  Si Diode  11-23-1990
