
*SRC=1N1202;DN1202;Diodes;Rectifier >5A;200V 12A
.MODEL DN1202 D (IS=29.7N RS=10.6M N=1.70 BV=266 IBV=4M
+ CJO=494P VJ=.75 M=.333 TT=5.76U)
* Motorola   200 Volt  12 Amp  60 us  Si Diode  11-23-1990
