
*SRC=1N1204;DN1204;Diodes;Rectifier >5A;400V 12A
.MODEL DN1204 D (IS=29.7N RS=10.6M N=1.70 BV=533 IBV=3.5M
+ CJO=494P VJ=.75 M=.333 TT=5.76U)
* Motorola   400 Volt  12 Amp  60 us  Si Diode  11-23-1990
