
*SRC=1N3889;DN3889;Diodes;Rectifier >5A;50V 12A
.MODEL DN3889 D (IS=9.06E-08 N=1.97 BV=6.66E+01 IBV=1.00E-05
+ RS=9.25E-03 CJO=1.19E-10 VJ=.75 M=.26 TT=1.44E-07)
* Motorola  50 Volt  12.00 Amp   0.10 us  Si Rectifier   Diode  06-27-1990
