
*SRC=1N3900;DN3900;Diodes;Rectifier >5A;100V 20A
.MODEL DN3900 D (IS=3.29E-08 N=1.97 BV=1.33E+02 IBV=1.00E-05
+ RS=4.60E-03 CJO=1.66E-10 VJ=.25 M=.2 TT=1.44E-07)
* Motorola  100 Volt  20.00 Amp   0.10 us  Si Rectifier   Diode  06-27-1990
