
*SRC=1N4721;DN4721;Diodes;Rectifier <=5A;200V 3A
.MODEL DN4721 D (IS=462P RS=11.5M N=1.42 BV=266 IBV=.5M
+ CJO=124P VJ=.75 M=.333 TT=21.6U)
* Motorola   200 Volt  3 Amp  15 us  Si Diode  11-23-1990
