
*SRC=1N5140;DN5140;Diodes;Varactors;60V 10pf
*HELP issyntax.hlp "Varactor Diodes"
.MODEL DN5140 D(M=0.4557 VJ=.885 CJO=18.40P BV=90 IBV=10N)
* Motorola  CT=10P @ 4V Si Varactor Diode 5-5-91
