
*SRC=1N5165;DN5165;Diodes;Schottky;30V
.MODEL DN5165 D (IS=2.14N RS=9.69 N=.942 BV=43.3 IBV=350.0N
+ CJO=800F VJ=.75 M=.333 TT=36P EG=0.69 XTI=2)
* HP 5082-2301 30 Volt  .05 Amp   Si Schottky Diode  11-23-1990
