
*SRC=1N5167;DN5167;Diodes;Schottky;20V
.MODEL DN5167 D (IS=2.14N RS=9.69 N=.942 BV=26.6 IBV=500.0N
+ CJO=1P VJ=.75 M=.333 TT=36P EG=0.69 XTI=2)
* HP 5082-2303 20 Volt  .05 Amp   Si Schottky Diode  11-23-1990
