
*SRC=1N5399;DN5399;Diodes;Rectifier <=5A;1000V 1.5A
.MODEL DN5399 D (IS=2.24E-09 N=1.59 BV=1.33E+03 IBV=1.00E-06
+ RS=4.30E-02 CJO=3.65E-11 VJ=.2 M=.3 TT=4.20E-06)
* Motorola  1000 Volt   1.50 Amp   5.00 us  Si Rectifier   Diode  06-28-1990
