
*SRC=1N5452;DN5452;Diodes;Varactors;30V 47pf
*HELP issyntax.hlp "Varactor Diodes"
.MODEL DN5452 D(M=.5441 VJ=1.162 CJO=96.9P BV=43.33 IBV=10N)
* Motorola  CT=47P @ 4V Si Varactor Diode 5-5-91
