
*SRC=1N5402;DN5402;Diodes;Rectifier <=5A;200V 3A
.MODEL DN5402 D (IS=2.68P RS=7.31M N=1.17 BV=266 IBV=10U
+ CJO=124P VJ=.6 M=.333 TT=14.4U)
* Motorola   200 Volt  3 Amp  15 us  Si Diode  11-23-1990
