
*SRC=1N5712;DN5712;Diodes;Schottky;20V
.MODEL DN5712 D (IS=7.02E-09 N=1.25 BV=2.66E+01 IBV=5.00E-08
+ RS=8.77E+00 CJO=1.20E-12 VJ=.75 M=.333 XTI=2 EG=.69 TT=2.52E-11)
* HP 5082-2810 20 Volt   0.05 Amp   Si Schottky   Diode  07-08-1990
