
*SRC=1N5829;DN5829;Diodes;Schottky;20V 25A
.MODEL DN5829 D (IS=5.71E-04 N=1.25 BV=2.66E+01 IBV=8.5M
+ RS=3.75E-03 CJO=8.19E-09 VJ=.125 M=.426 XTI=2 EG=0.69 TT=1.80E-11)
* Motorola 40 Volt  25.00 Amp   Si Schottky   Diode  07-05-1990
