
*SRC=1N5817;DN5817;Diodes;Schottky;20V 1A
.MODEL DN5817 D (IS=3.53E-05 N=1.30 BV=2.66E+01 IBV=3.00E-04
+ RS=4.47E-02 CJO=2.31E-10 VJ=2.42 M=.588 XTI=2 EG=0.69 TT=7.20E-11)
* Motorola 20 Volt   1.00 Amp   Si Schottky   Diode  07-05-1990
