
*SRC=1N5827;DN5827;Diodes;Schottky;30V 15A
.MODEL DN5827 D (IS=3.55E-04 N=1.29 BV=4.00E+01 IBV=4M
+ RS=4.18E-03 CJO=2.03E-09 VJ=.75 M=.39 XTI=2 EG=0.69 TT=1.08E-11)
* Motorola 30 Volt  15.00 Amp   Si Schottky   Diode  07-05-1990
