
*SRC=1N5826;DN5826;Diodes;Schottky;20V 15A
.MODEL DN5826 D (IS=3.55E-04 N=1.29 BV=2.66E+01 IBV=4M
+ RS=4.18E-03 CJO=2.58E-09 VJ=.75 M=.4 XTI=2 EG=0.69 TT=1.08E-11)
* Motorola 20 Volt  15.00 Amp   Si Schottky   Diode  07-05-1990
