
*SRC=1N5818;DN5818;Diodes;Schottky;30V 1A
.MODEL DN5818 D (IS=1.65E-05 N=1.34 BV=4.00E+01 IBV=5.00E-04
+ RS=5.07E-02 CJO=1.84E-10 VJ=1.95 M=.637 XTI=2 EG=0.69 TT=7.20E-11)
* Motorola 30 Volt   1.00 Amp   Si Schottky   Diode  07-05-1990
