
*SRC=1N6392L;DN6392L;Diodes;Schottky;Low Temp
.MODEL DN6392L D (IS=50N RS=1.97M N=1.0 BV=60 IBV=1M
+ CJO=5.321N VJ=.75 M=.333 TT=14.4P XTI=2 EG=.69)
* Unitrode 45 Volt  120 Amp  Si Schottky Diode  10-26-1990
