
*SRC=1N752;DN752;Diodes;Zener <=10V;5.6V .5W
.MODEL DN752 D(RS=6.1685 BV=5.4766     
+ CJO=376.59P TT=50N M=.33 VJ=.75 IS=1E-11 N=1.27 IBV=10MA)     
* Motorola  5.6 Volt Si Zener 10-26-1990
