
*SRC=1N916;DN916;Diodes;Switching;100V 200mA
.MODEL DN916 D (IS=442P RS=.42 N=1.70 BV=133.3 IBV=10U
+ CJO=1.75P VJ=.75 M=.333 TT=3.6N)
* National 100 Volt  .075 Amp  .0025 us  Si Diode  11-23-1990
