
*SRC=1N959;DN959;Diodes;Zener <=10V;8.2V .5W
.MODEL DN959 D(RS=3.1128 BV=8.1525     
+ CJO=863.74P TT=20N N=2 IS=1E-9 IBV=15.244M)   
* Motorola  8.2 Volt Si Zener 10-26-1990
