
*SRC=1N963;DN963;Diodes;Zener 10V-50V;12V .5W
.MODEL DN963 D(RS=6.0855 BV=11.937     
+ CJO=670.52P TT=20N N=2 IS=1E-9 IBV=10.417M)   
* Motorola  12.0 Volt Si Zener 10-26-1990
