
*SRC=1N965;DN965;Diodes;Zener 10V-50V;15V .5W
.MODEL DN965 D(RS=8.7297 BV=14.927     
+ CJO=578.05P TT=20N N=2 IS=1E-9 IBV=8.3333M)   
* Motorola  15.0 Volt Si Zener 10-26-1990
