
*SRC=1N975;DN975;Diodes;Zener 10V-50V;39V .5W
.MODEL DN975 D(RS=38.266 BV=38.877     
+ CJO=306.20P TT=20N N=2 IS=1E-9 IBV=3.2051M)   
* Motorola  39.0 Volt Si Zener 10-26-1990
