
*SRC=1N981;DN981;Diodes;Zener >50V;68V .5W
.MODEL DN981 D(RS=108.43 BV=67.801     
+ CJO=211.57P TT=20N N=2 IS=1E-9 IBV=1.8382M)
* Motorola  68.0 Volt Si Zener 10-26-1990
