
*SRC=1N991;DN991;Diodes;Zener >50V;180V .4W
.MODEL DN991 D(RS=1.0847K BV=179.25     
+ CJO=110.74P TT=20N N=2 IS=1E-9 IBV=694.44U)   
* Motorola  180.0 Volt Si Zener 10-26-1990
