
*SRC=5082-2817;HP2817;Diodes;Schottky;15V
.MODEL HP2817 D (IS=1.36N RS=8.52 N=1.01 BV=20.0 IBV=100N
+ CJO=1P VJ=.75 EG=.69 XTI=2 M=.333 TT=7.2P KF=3.2E-15 AF=1)
* HP 5082-2817   15 Volt  1 Amp   Si Schottky Diode  02-13-1991
