
*SRC=5082-2900;HP2900;Diodes;Schottky;10V
.MODEL HP2900 D (IS=2.14N RS=9.69 N=.942 BV=13.3 IBV=100.0N
+ CJO=1P VJ=.75 M=.333 TT=36P EG=0.69 XTI=2)
* HP 10 Volt  .05 Amp   Si Schottky Diode  11-23-1990
