
*SRC=MBR6535;MBR6535;Diodes;Schottky;35V 130A
.MODEL MBR6535 D (IS=6.59U RS=2.25M N=1.25 BV=46.5 IBV=50U
+ CJO=4.8N VJ=.746 M=.3979 TT=14.4P XTI=2 EG=.69)
* Motorola 35 Volt  130 Amp  Si Schottky Diode  10-26-1990
