
*SRC=MBR6545;MBR6545;Diodes;Schottky;45V 130A
.MODEL MBR6545 D (IS=6.59U RS=2.25M N=1.25 BV=59.99 IBV=50U
+ CJO=4.8N VJ=.746 M=.3979 TT=14.4P XTI=2 EG=.69)
* Motorola 45 Volt  130 Amp  Si Schottky Diode  10-26-1990
