
*SRC=MR1396;MR1396;Diodes;Rectifier >5A;600V 30A
.MODEL MR1396 D (IS=5.17E-09 N=1.70 BV=8.00E+02 IBV=1.00E-05
+ RS=3.77E-03 CJO=1.19E-10 VJ=.75 M=.26 TT=1.44E-07)
* Motorola  600 Volt  30.00 Amp   0.10 us  Si Rectifier   Diode  06-27-1990
