
*SRC=MR510;MR510;Diodes;Rectifier <=5A;1000V 3A
.MODEL MR510 D (IS=4.09E-10 N=1.41 BV=1.33E+03 IBV=1.00E-07
+ RS=8.08E-03 CJO=7.30E-11 VJ=.36 M=.41 TT=5.76E-06)
* Motorola  1000 Volt   3.00 Amp   5.00 us  Si Rectifier   Diode  07-01-1990
