
*SRC=MR760;MR760;Diodes;Rectifier >5A;1000V 6A
.MODEL MR760 D (IS=3.62E-08 N=1.67 BV=1.33E+03 IBV=2.50E-05
+ RS=1.84E-03 CJO=9.28E-10 VJ=.29 M=.55 TT=6.91E-06)
* Motorola  1000 Volt   6.00 Amp   5.50 us  Si Rectifier   Diode  07-01-1990
