
*SRC=MUR10005;MUR10005;Diodes;Rectifier >5A;50V 80A
.MODEL MUR10005 D (IS=61.1U RS=822U N=2.51 BV=66.6 IBV=25U
+ CJO=424P VJ=.75 M=.195 TT=72N)
* Motorola 50 Volt  50 Amp  .05 us  Si Diode  04-22-1991
