
*SRC=MUR180;MUR180;Diodes;Rectifier <=5A;800V 1A
.MODEL MUR180 D (IS=4.41U RS=80.8M N=3.53 BV=1066 IBV=10U
+ CJO=17P VJ=.75 M=.333 TT=144N)
* Motorola  800 Volt  1 Amp  .075 us  Si Diode  04-22-1991
