
*SRC=MUR115;MUR115;Diodes;Rectifier <=5A;150V 1A
.MODEL MUR115 D (IS=13.5N RS=25.7M N=1.59 BV=200 IBV=2U
+ CJO=45P VJ=.75 M=.302 TT=50.4N)
* Motorola  150 Volt  1 Amp  .025 us  Si Diode  04-22-1991
