
*SRC=MUR3010PT;MUR3010;Diodes;Rectifier >5A;100V 15A
.MODEL MUR3010 D (IS=155U RS=7.52M N=2.84 BV=133.3 IBV=10U
+ CJO=503P VJ=.75 M=.337 TT=50.4N)
* Motorola 100 Volt  15 Amp  .035 us  Si Diode  04-22-1991
