
*SRC=MUR3040PT;MUR3040;Diodes;Rectifier >5A;400V 15A
.MODEL MUR3040 D (IS=164U RS=11.1M N=3.18 BV=533.3 IBV=10U
+ CJO=503P VJ=.75 M=.337 TT=14.4N)
* Motorola 400 Volt  15 Amp  .01 us  Si Diode  04-22-1991
