
*SRC=MUR3015PT;MUR3015;Diodes;Rectifier >5A;150V 15A
.MODEL MUR3015 D (IS=155U RS=7.52M N=2.84 BV=200 IBV=10U
+ CJO=503P VJ=.75 M=.337 TT=50.4N)
* Motorola 150 Volt  15 Amp  .035 us  Si Diode  04-22-1991
