
*SRC=MUR3030PT;MUR3030;Diodes;Rectifier >5A;300V 15A
.MODEL MUR3030 D (IS=164U RS=11.1M N=3.18 BV=400 IBV=10U
+ CJO=503P VJ=.75 M=.337 TT=14.4N)
* Motorola 300 Volt  15 Amp  .01 us  Si Diode  04-22-1991
