
*SRC=MUR4100;MUR4100;Diodes;Rectifier <=5A;1000V 4A
.MODEL MUR4100 D (IS=7.69U RS=39.9M N=2.96 BV=1333 IBV=25U
+ CJO=73.3P VJ=.75 M=.333 TT=108N)
*   Motorola 1000 Volt  4 Amp  .075 us  Si Diode  04-26-1991
