
*SRC=MUR480;MUR480;Diodes;Rectifier <=5A;800V 4A
.MODEL MUR480 D (IS=7.69U RS=39.9M N=2.96 BV=1066 IBV=25U
+ CJO=73.3P VJ=.75 M=.333 TT=108N)
*   Motorola 800 Volt  4 Amp  .075 us  Si Diode  04-26-1991
