
*SRC=MUR610CT;MUR610CT;Diodes;Rectifier >5A;100V 6A
.MODEL MUR610CT D (IS=3.02U RS=13.3M N=2.51 BV=133.3 IBV=20N
+ CJO=197P VJ=.75 M=.333 TT=40.2N)
*   Motorola 100 Volt  3 Amp  .03 us  Si Diode  04-26-1991
