
*SRC=MUR615CT;MUR615CT;Diodes;Rectifier >5A;150V 6A
.MODEL MUR615CT D (IS=3.02U RS=13.3M N=2.51 BV=200 IBV=20N
+ CJO=197P VJ=.75 M=.333 TT=50.2N)
*   Motorola 150 Volt  3 Amp  .03 us  Si Diode  04-26-1991
