
*SRC=MUR860;MUR860;Diodes;Rectifier >5A;600V 8A
.MODEL MUR860 D (IS=783U RS=30M N=4.82 BV=600 IBV=10U
+ CJO=330P VJ=.75 M=.333 TT=79.2N)
* Motorola  600 Volt  8 Amp  55M us  Si Diode  02-24-1994
