
*SRC=MUR810;MUR810;Diodes;Rectifier >5A;100V 8A
.MODEL MUR810 D (IS=1.47E-07 N=1.86 BV=1.33E+02 IBV=5.00E-06
+ RS=5.31E-03 CJO=2.65E-10 VJ=.75 M=.41 TT=5.04E-08)
* Motorola  100 Volt   8.00 Amp   0.04 us  Si Rectifier   Diode  07-01-1990
