
*SRC=1N1199;DN1199;Diodes;Rectifier >5A;50V 35A
.MODEL DN1199 D (IS=29.7N RS=10.6M N=1.70 BV=66.6 IBV=5M
+ CJO=494P VJ=.75 M=.333 TT=5.76U)
* Motorola   50 Volt  12 Amp  60 us  Si Diode  11-23-1990
