
*SRC=1N1206;DN1206;Diodes;Rectifier >5A;600V 12A
.MODEL DN1206 D (IS=29.7N RS=10.6M N=1.70 BV=900 IBV=3M
+ CJO=494P VJ=.75 M=.333 TT=5.76U)
* Motorola   600 Volt  12 Amp  60 us  Si Diode  11-23-1990
