
*SRC=1N3492;DN3492;Diodes;Rectifier >5A;100V 25A
.MODEL DN3492 D (IS=4.12E-10 N=1.24 BV=1.33E+02 IBV=1.00E-03
+ RS=4.31E-03 CJO=9.28E-10 VJ=.29 M=0.55 TT=3.08E-06)
* Motorola  100 Volt  25.00 Amp   5.50 us  Si Rectifier   Diode  06-25-1990
