
*SRC=1N3883;DN3883;Diodes;Rectifier >5A;400V 6A
.MODEL DN3883 D (IS=2.01E-11 N=1.70 BV=5.33E+02 IBV=1.00E-05
+ RS=1.24E-02 CJO=1.19E-10 VJ=.75 M=.26 TT=1.44E-07)
* Motorola  400 Volt   6.00 Amp   0.10 us  Si Rectifier   Diode  06-27-1990
