
*SRC=1N3899;DN3899;Diodes;Rectifier >5A;50V 20A
.MODEL DN3899 D (IS=3.29E-08 N=1.97 BV=6.66E+01 IBV=1.00E-05
+ RS=4.60E-03 CJO=1.66E-10 VJ=.25 M=.2 TT=1.44E-07)
* Motorola  50 Volt  20.00 Amp   0.10 us  Si Rectifier   Diode  06-27-1990
