
*SRC=1N3890;DN3890;Diodes;Rectifier >5A;100V 12A
.MODEL DN3890 D (IS=9.06E-08 N=1.97 BV=1.33E+02 IBV=1.00E-05
+ RS=9.25E-03 CJO=1.19E-10 VJ=.75 M=.26 TT=1.44E-07)
* Motorola  100 Volt  12.00 Amp   0.10 us  Si Rectifier   Diode  06-27-1990
