
*SRC=1N4001;DN4001;Diodes;Rectifier <=5A;50V 1A
.MODEL DN4001 D (IS=5.86E-07 N=1.70 BV=6.66E+01 IBV=5.00E-07
+ RS=3.62E-02 CJO=5.21E-11 VJ=.34 M=.38 TT=5.04E-06)
* Motorola  50 Volt   1.00 Amp   3.50 us  Si Rectifier   Diode  07-01-1990
