
*SRC=1N4005;DN4005;Diodes;Rectifier <=5A;600V 1A
.MODEL DN4005 D (IS=5.86E-06 N=1.70 BV=8.00E+02 IBV=5.00E-07
+ RS=4.22E-02 CJO=5.21E-11 VJ=.34 M=.38 TT=5.04E-06)
* Motorola  600 Volt   1.00 Amp   3.50 us  Si Rectifier   Diode  07-01-1990
