
*SRC=1N4004;DN4004;Diodes;Rectifier <=5A;400V 1A
.MODEL DN4004 D (IS=5.86E-06 N=1.70 BV=5.33E+02 IBV=5.00E-07
+ RS=4.22E-02 CJO=5.21E-11 VJ=.34 M=.38 TT=5.04E-06)
* Motorola  400 Volt   1.00 Amp   3.50 us  Si Rectifier   Diode  07-01-1990
