
*SRC=1N4454;DN4454;Diodes;Switching;75V 200mA
.MODEL DN4454 D (IS=3.13P RS=.21 N=1.76 BV=100 IBV=500N
+ CJO=2P VJ=.75 M=.333 TT=2.88N)
* Unitrode 75 Volt  .2 Amp  2 ns  Si Diode  11-23-1990
