
*SRC=1N5144;DN5144;Diodes;Varactors;60V 22pf
*HELP issyntax.hlp "Varactor Diodes"
.MODEL DN5144 D(M=0.4685 VJ=.737 CJO=45.10P BV=90 IBV=10N)
* Motorola  CT=22P @ 4V Si Varactor Diode 5-5-91
