
*SRC=1N5400;DN5400;Diodes;Rectifier <=5A;50V 3A
.MODEL DN5400 D (IS=2.68P RS=9.77M N=1.17 BV=66.6 IBV=10U 
+ CJO=124P VJ=.6 M=.333 TT=14.4U)
* Motorola  50 Volt 3 Amp Si Rectifier 10-26-90
