
*SRC=1N5443;DN5443;Diodes;Varactors;30V 10pf
*HELP issyntax.hlp "Varactor Diodes"
.MODEL DN5443 D(M=.4135 VJ=.6357 CJO=18.4P BV=43.33 IBV=10N)
* Motorola  CT=10P @ 4V Si Varactor Diode 5-5-91
