
*SRC=1N5448;DN5448;Diodes;Varactors;30V 22pf
*HELP issyntax.hlp "Varactor Diodes"
.MODEL DN5448 D(M=.4851 VJ=.9279 CJO=40.6P BV=43.33 IBV=10N)
* Motorola  CT=22P @ 4V Si Varactor Diode 5-5-91
