
*SRC=1N5820;DN5820;Diodes;Schottky;20V 3A
.MODEL DN5820 D (IS=88U N=1.29 BV=2.00E+01 IBV=300E-06
+ RS=2.54E-02 CJO=5.99E-10 VJ=4.698 M=.514 TT=2.16E-11 XTI=2 EG=.69)
*  20 Volt   3.00 Amp   Si Schottky   Diode  07-23-1990
