
*SRC=1N6392H;DN6392H;Diodes;Schottky;High Temp
.MODEL DN6392H D (IS=912U RS=2.18M N=1.17 BV=60 IBV=13M
+ CJO=5.32N VJ=.75 M=.333 TT=14.4P)
* Unitrode 45 Volt  120 Amp  Si Schottky Diode  10-26-1990
