
*SRC=1N749;DN749;Diodes;Zener <=10V;4.3V .5W
.MODEL DN749 D(RS=10.467 BV=4.0907     
+ CJO=468.29P TT=50N M=.33 VJ=.75 IS=1E-11 N=1.27 IBV=10MA)     
* Motorola  4.3 Volt Si Zener 10-26-1990
