
*SRC=1N962;DN962;Diodes;Zener 10V-50V;11V .5W
.MODEL DN962 D(RS=5.2600 BV=10.940     
+ CJO=710.46P TT=20N N=2 IS=1E-9 IBV=11.364M)   
* Motorola  11.0 Volt Si Zener 10-26-1990
