
*SRC=1N964;DN964;Diodes;Zener 10V-50V;13V .5W
.MODEL DN964 D(RS=6.9397 BV=12.933     
+ CJO=635.76P TT=20N N=2 IS=1E-9 IBV=9.6154M)   
* Motorola  13.0 Volt Si Zener 10-26-1990
