
*SRC=1N966;DN966;Diodes;Zener 10V-50V;16V .5W
.MODEL DN966 D(RS=9.6639 BV=15.925     
+ CJO=553.77P TT=20N N=2 IS=1E-9 IBV=7.8125M)   
* Motorola  16.0 Volt Si Zener 10-26-1990
