
*SRC=1N968;DN968;Diodes;Zener 10V-50V;20V .5W
.MODEL DN968 D(RS=13.647 BV=19.915     
+ CJO=477.40P TT=20N N=2 IS=1E-9 IBV=6.2500M)   
* Motorola  20.0 Volt Si Zener 10-26-1990
