
*SRC=1N970;DN970;Diodes;Zener 10V-50V;24V .5W
.MODEL DN970 D(RS=18.014 BV=23.906     
+ CJO=422.89P TT=20N N=2 IS=1E-9 IBV=5.2083M)   
* Motorola  24.0 Volt Si Zener 10-26-1990
