
*SRC=1N976;DN976;Diodes;Zener 10V-50V;43V .5W
.MODEL DN976 D(RS=44.998 BV=42.869     
+ CJO=286.95P TT=20N N=2 IS=1E-9 IBV=2.9070M)   
* Motorola  43.0 Volt Si Zener 10-26-1990
