
*SRC=1N990;DN990;Diodes;Zener >50V;160V .4W
.MODEL DN990 D(RS=869.83 BV=159.32     
+ CJO=119.76P TT=20N N=2 IS=1E-9 IBV=781.25U)   
* Motorola  160.0 Volt Si Zener 10-26-1990
