
*SRC=5082-2811;HP2811;Diodes;Schottky;15V
.MODEL HP2811 D (IS=10.4N RS=11.75 N=1.17 BV=20 IBV=800N
+ CJO=1P VJ=.75 M=.333 TT=14.4P EG=0.69 XTI=2)
* HP 5082-2811 15 Volt  .02 Amp  Si Schottky Diode  11-23-1990
