
*SRC=R18C12B;R18C12B;Diodes;Rectifier >5A;1200V 185A
.MODEL R18C12B D (IS=1.11U RS=653U N=1.97 BV=1.19K IBV=13M
+ CJO=7.60N VJ=.75 M=.333 TT=21.5U)
* IR 1200 Volt  185 Amp  22 us  Si Diode  09-11-1991
