
*SRC=R18C18A;R18C18A;Diodes;Rectifier >5A;1800V 185A
.MODEL R18C18A D (IS=1.05U RS=629U N=1.97 BV=1.79K IBV=13M
+ CJO=7.60N VJ=.75 M=.333 TT=21.5U)
* IR 1800 Volt  185 Amp  22 us  Si Diode  09-11-1991
