
*SRC=MUR10020;MUR10020;Diodes;Rectifier >5A;200V 80A
.MODEL MUR10020 D (IS=61.1U RS=822U N=2.51 BV=266.6 IBV=25U
+ CJO=424P VJ=.75 M=.195 TT=72N)
* Motorola 200 Volt  50 Amp  .05 us  Si Diode  04-22-1991
