
*SRC=MUR10015;MUR10015;Diodes;Rectifier >5A;150V 80A
.MODEL MUR10015 D (IS=61.1U RS=822U N=2.51 BV=200 IBV=25U
+ CJO=424P VJ=.75 M=.195 TT=72N)
* Motorola 150 Volt  50 Amp  .05 us  Si Diode  04-22-1991
