
*SRC=MUR10010;MUR10010;Diodes;Rectifier >5A;100V 80A
.MODEL MUR10010 D (IS=61.1U RS=822U N=2.51 BV=133.3 IBV=25U
+ CJO=424P VJ=.75 M=.195 TT=72N)
* Motorola 100 Volt  50 Amp  .05 us  Si Diode  04-22-1991
