
*SRC=MUR1100;MUR1100;Diodes;Rectifier <=5A;1000V 1A
.MODEL MUR1100 D (IS=4.41U RS=80.8M N=3.53 BV=1333 IBV=10U
+ CJO=17P VJ=.75 M=.333 TT=144N)
* Motorola  1000 Volt  1 Amp  .075 us  Si Diode  04-22-1991
