
*SRC=MUR120;MUR120;Diodes;Rectifier <=5A;200V 1A
.MODEL MUR120 D (IS=1.08U RS=55.5M N=2.59 BV=266 IBV=5U
+ CJO=15.7P VJ=.75 M=.310 TT=108N)
* Motorola  200 Volt  1 Amp  .05 us  Si Diode  04-22-1991
