
*SRC=MUR3005PT;MUR3005;Diodes;Rectifier >5A;50V 15A
.MODEL MUR3005 D (IS=155U RS=7.52M N=2.84 BV=66.6 IBV=10U
+ CJO=503P VJ=.75 M=.337 TT=50.4N)
* Motorola 50 Volt  15 Amp  .035 us  Si Diode  04-22-1991
