
*SRC=MUR3020PT;MUR3020;Diodes;Rectifier >5A;200V 15A
.MODEL MUR3020 D (IS=164U RS=11.1M N=3.18 BV=266.6 IBV=10U
+ CJO=503P VJ=.75 M=.337 TT=50.4N)
* Motorola 200 Volt  15 Amp  .01 us  Si Diode  04-22-1991
