
*SRC=MUR3060PT;MUR3060;Diodes;Rectifier >5A;600V 15A
.MODEL MUR3060 D (IS=235U RS=35M N=3.68 BV=600 IBV=10U
+ CJO=517P VJ=.75 M=.333 TT=86.4N)
*  600 Volt  15 Amp  60M us  Si Diode  02-24-1994
