
*SRC=MUR3050PT;MUR3050;Diodes;Rectifier >5A;500V 15A
.MODEL MUR3050 D (IS=235U RS=35M N=3.68 BV=500 IBV=10U
+ CJO=517P VJ=.75 M=.333 TT=86.4N)
*  500 Volt  15 Amp  60M us  Si Diode  02-24-1994
