
*SRC=MUR410;MUR410;Diodes;Rectifier <=5A;100V 4A
.MODEL MUR410 D (IS=46.8N RS=7.36M N=1.67 BV=133.3 IBV=5U
+ CJO=137P VJ=.75 M=.333 TT=36N)
* Motorola 100 Volt  4 Amp  .025 us  Si Diode  04-26-1991
