
*SRC=MUR460;MUR460;Diodes;Rectifier <=5A;600V 4A
.MODEL MUR460 D (IS=2.15U RS=24.9M N=2.68 BV=800 IBV=10U
+ CJO=43.3P VJ=.75 M=.333 TT=72N)
*   Motorola 600 Volt  4 Amp  .05 us  Si Diode  04-26-1991
