
*SRC=MUR470;MUR470;Diodes;Rectifier <=5A;700V 4A
.MODEL MUR470 D (IS=7.69U RS=39.9M N=2.96 BV=933 IBV=25U
+ CJO=73.3P VJ=.75 M=.333 TT=108N)
*   Motorola 700 Volt  4 Amp  .075 us  Si Diode  04-26-1991
