
*SRC=MUR620CT;MUR620CT;Diodes;Rectifier >5A;200V 6A
.MODEL MUR620CT D (IS=3.02U RS=13.3M N=2.51 BV=266.6 IBV=20N
+ CJO=197P VJ=.75 M=.333 TT=50.2N)
*   Motorola 200 Volt  3 Amp  .03 us  Si Diode  04-26-1991
