
*SRC=MUR8100;MUR8100;Diodes;Rectifier >5A;1000V 8A
.MODEL MUR8100 D (IS=494U RS=35M N=5.36 BV=1K IBV=25U
+ CJO=397P VJ=.75 M=.333 TT=122N)
* Motorola  1000 Volt  8 Amp  85M us  Si Diode  02-24-1994
