
*SRC=MUR830;MUR830;Diodes;Rectifier >5A;300V 8A
.MODEL MUR830 D (IS=354U RS=22M N=4.02 BV=300 IBV=10U
+ CJO=330P VJ=.75 M=.333 TT=79.2N)
* Motorola  300 Volt  8 Amp  55M us  Si Diode  02-24-1994
