
*SRC=MUR870;MUR870;Diodes;Rectifier >5A;700V 8A
.MODEL MUR870 D (IS=494U RS=35M N=5.36 BV=700 IBV=25U
+ CJO=397P VJ=.75 M=.333 TT=122N)
* Motorola  700 Volt  8 Amp  85M us  Si Diode  02-24-1994
