
*SRC=MUR880;MUR880;Diodes;Rectifier >5A;800V 8A
.MODEL MUR880 D (IS=494U RS=35M N=5.36 BV=800 IBV=25U
+ CJO=397P VJ=.75 M=.333 TT=122N)
* Motorola  800 Volt  8 Amp  85M us  Si Diode  02-24-1994
