
*SRC=BYV28-10;BYV28-10;Diodes;Rectifier <=5A;100V 3.5A
.MODEL BYV28-10 D (IS=177N RS=54.8M N=1.89 BV=133.3 IBV=1U
+ CJO=198P VJ=.2073 M=.4150 TT=36N)
* Philips   100 Volt  3.5 Amp  .025 us  Si Diode  04-22-1991
