
*SRC=BYV36C;BYV36C;Diodes;Rectifier <=5A;600V 2A
.MODEL BYV36C D (IS=28.4N RS=.345 N=2.07 BV=900 IBV=5U
+ CJO=39.40P VJ=.3696 M=.3424 TT=128N)
* Philips   600 Volt  1.5 Amp  .13 us  Si Diode  04-22-1991
