
*SRC=BYV95A;BYV95A;Diodes;Rectifier <=5A;200V 1.5A
.MODEL BYV95A D (IS=4.9N RS=.102 N=1.98 BV=266 IBV=1U
+ CJO=62.9P VJ=.75 M=.333 TT=360N)
* Philips   200 Volt  1.5 Amp  .2 us  Si Diode  04-22-1991
