
*SRC=BZX79A4.7;BZX794V7;Diodes;Zener <=10V;4.7V .5W
.MODEL BZX794V7 D(RS=9.0662 BV=4.5187  
+ CJO=435.15P TT=50N M=.33 VJ=.75 IS=1.0E-10 N=1.27 IBV=10MA) 
* Philips 4.7 Volt Zener
