
*SRC=BZX79A56;BZX79A56;Diodes;Zener >50V;56V .5W
.MODEL BZX79A56 D(RS=72.570 BV=55.838  
+ CJO=240.73P TT=20N N=2 IS=3.8E-09 IBV=5.0E-5)
* Philips 56 Volt Zener
