
*SRC=BZX79A22;BZX79A22;Diodes;Zener 10V-50V;22V .5W
.MODEL BZX79A22 D(RS=15.783 BV=21.910  
+ CJO=448.08P TT=20N N=2 IS=3.8E-09 IBV=6.0E-4) 
* Philips 22 Volt Zener
