
*SRC=BZX79A51;BZX79A51;Diodes;Zener >50V;51V .5W
.MODEL BZX79A51 D(RS=60.790 BV=50.851  
+ CJO=256.17P TT=20N N=2 IS=3.8E-09 IBV=1.0E-4)
* Philips 51 Volt Zener
