
*SRC=BZX79A33;BZX79A33;Diodes;Zener 10V-50V;33V .5W
.MODEL BZX79A33 D(RS=29.333 BV=32.889  
+ CJO=342.18P TT=20N N=2 IS=3.8E-09 IBV=2.0E-4) 
* Philips 33 Volt Zener
