
*SRC=BZX79A4.3;BZX794V3;Diodes;Zener <=10V;4.3V .5W
.MODEL BZX794V3 D(RS=10.467 BV=4.0907  
+ CJO=468.29P TT=50N M=.33 VJ=.75 IS=1.0E-10 N=1.27 IBV=5MA) 
* Philips 4.3 Volt Zener
