
*SRC=BZX79A13;BZX79A13;Diodes;Zener 10V-50V;13V .5W
.MODEL BZX79A13 D(RS=6.9397 BV=12.933  
+ CJO=635.76P TT=20N N=2 IS=3.8E-09 IBV=1M) 
* Philips 13 Volt Zener
