
*SRC=BZX79A3.0;BZX793V0;Diodes;Zener <=10V;3.0V .5W
.MODEL BZX793V0 D(RS=14.556 BV=2.6089  
+ CJO=648.11P TT=50N M=.33 VJ=.75 IS=1.0E-10 N=1.27 IBV=6MA) 
* Philips 3.0 Volt Zener
