
*SRC=BZX79A18;BZX79A18;Diodes;Zener 10V-50V;18V .5W
.MODEL BZX79A18 D(RS=11.607 BV=17.919  
+ CJO=512.05P TT=20N N=2 IS=3.8E-09 IBV=8.0E-4) 
* Philips 18 Volt Zener
