
*SRC=BZX79A43;BZX79A43;Diodes;Zener 10V-50V;43V .5W
.MODEL BZX79A43 D(RS=44.998 BV=42.869  
+ CJO=286.95P TT=20N N=2 IS=3.8E-09 IBV=1.0E-4) 
* Philips 43 Volt Zener
