
*SRC=BZX79A75;BZX79A75;Diodes;Zener >50V;75V .5W
.MODEL BZX79A75 D(RS=135.27 BV=74.775  
+ CJO=198.22P TT=20N N=2 IS=3.8E-09 IBV=1.0E-5) 
* Philips 75 Volt Zener
