
*SRC=BZX79A12;BZX79A12;Diodes;Zener 10V-50V;12V .5W
.MODEL BZX79A12 D(RS=6.0855 BV=11.937  
+ CJO=670.52P TT=20N N=2 IS=3.8E-09 IBV=1M) 
* Philips 12 Volt Zener
