
*SRC=BZX79A47;BZX79A47;Diodes;Zener 10V-50V;47V .5W
.MODEL BZX79A47 D(RS=52.468 BV=46.860  
+ CJO=270.47P TT=20N N=2 IS=3.8E-09 IBV=1.0E-4)
* Philips 47 Volt Zener
