
*SRC=BZX79A39;BZX79A39;Diodes;Zener 10V-50V;39V .5W
.MODEL BZX79A39 D(RS=38.266 BV=38.877  
+ CJO=306.20P TT=20N N=2 IS=3.8E-09 IBV=1.0E-4) 
* Philips 39 Volt Zener
