
*SRC=BZX79A30;BZX79A30;Diodes;Zener 10V-50V;30V .5W
.MODEL BZX79A30 D(RS=25.311 BV=29.895  
+ CJO=364.57P TT=20N N=2 IS=3.8E-09 IBV=3.0E-4) 
* Philips 30 Volt Zener
