
*SRC=BZX79A6.8;BZX796V8;Diodes;Zener <=10V;6.8V .5W
.MODEL BZX796V8 D(RS=3.7207 BV=6.7256  
+ CJO=320.85P TT=50N M=.33 VJ=.75 IS=3.8E-09 N=1.27 IBV=5MA) 
* Philips 6.8 Volt Zener
