
*SRC=1N5314;DN5314;Diodes;JFET Regulator;100V 4.7mA
*SYM=CRDIODE
.SUBCKT DN5314 1     2
*Connections Anode Cathode
JFET 1 2 2 1N5314
.MODEL 1N5314 NJF (VTO=-2.70 BETA=1.06M LAMBDA=1.1M RD=50
+ RS=126 IS=1.58F PB=1 FC=.5 CGS=5.57P CGD=3.78P)
*  MOTOROLA 100 Volt Dep-Mode N-Channel J-FET Diode 12-11-1995
.ENDS
