
*SRC=HZEN;HZEN;Generic Models;Zener;High Voltage 6.8-200V
*SYM=HZEN
*1N957 THRU 992, 6.8V TO 200V
.SUBCKT HZEN 1 2 {ZV=???}
*Parameters: ZV, Breakdown voltage in Volts
D1 1 2 DZEN
.MODEL DZEN D(RS={0.5*(-2.883224E0 + 7.217979E-1*ZV + 5.562566E-2*ZV^2 -1.139204E-3*ZV^3 + 1.793862E-5*ZV^4 -8.529727E-8*ZV^5 + 1.226089E-10*ZV^6)} 
+ BV={ZV-0.5*.125/ZV*(-2.883224E0 + 7.217979E-1*ZV + 5.562566E-2*ZV^2 -1.139204E-3*ZV^3 + 1.793862E-5*ZV^4 -8.529727E-8*ZV^5 + 1.226089E-10*ZV^6)} 
+ CJO={3500P*ZV^-.665} TT=20N N=2 IS=1E-9 IBV={.125/ZV}) 
.ENDS
