
*SRC=J500;J500;Diodes;JFET Regulator;100V .24mA
*SYM=CRDIODE
.SUBCKT J500 1     2
*Connections Anode Cathode 
JFET 1 2 2 J500
.MODEL J500 NJF (VTO=-1.12 BETA=.25M LAMBDA=1.1M RD=50
+ RS=126 IS=1.58F PB=1 FC=.5 CGS=5.57P CGD=3.78P)
*  100 Volt    Dep-Mode N-Channel J-FET Diode 05-10-1991
*  Siliconix 
.ENDS
