
*SRC=J505;J505;Diodes;JFET Regulator;100V 1mA
*SYM=CRDIODE
.SUBCKT J505 1     2
*Connections Anode Cathode 
JFET 1 2 2 J505
.MODEL J505 NJF (VTO=-1.35 BETA=.65M LAMBDA=1.1M RD=150
+ RS=106 IS=1.58F PB=1 FC=.5 CGS=5.57P CGD=3.78P)
*  100 Volt    Dep-Mode N-Channel J-FET Diode 05-10-1991
*  Siliconix 
.ENDS
