
*SRC=J508;J508;Diodes;JFET Regulator;100V 2mA
*SYM=CRDIODE
.SUBCKT J508 1     2
*Connections Anode Cathode 
JFET 1 2 2 J508
.MODEL J508 NJF (VTO=-1.52 BETA=1.26M LAMBDA=1.1M RD=260
+ RS=86 IS=1.58F PB=1 FC=.5 CGS=5.57P CGD=3.78P)
*  100 Volt    Dep-Mode N-Channel J-FET Diode 05-10-1991
*  Siliconix 
.ENDS
