
*SRC=J553;J553;Diodes;JFET Regulator;100V .5mA
*SYM=CRDIODE
.SUBCKT J553 1     2
*Connections Anode Cathode 
JFET 1 2 2 J553
.MODEL J553 NJF (VTO=-1.22 BETA=.40M LAMBDA=1.1M RD=110
+ RS=115 IS=1.58F PB=1 FC=.5 CGS=5.57P CGD=3.78P)
*  100 Volt  20M Amp  1K ohm  Dep-Mode N-Channel J-FET Diode 05-10-1991
*  Siliconix 
.ENDS
