
*SRC=LZEN;LZEN;Generic Models;Zener;Low Voltage 2.4-12V
*SYM=LZEN
*MODEL FOR 1N746-1N759 AND 1N4370-4372, 2.4 THRU 12 VOLTS
.SUBCKT LZEN 1 2 {ZV=???}
*Parameters: ZV, Breakdown voltage in Volts
D1 1 2 DZEN
.MODEL DZEN D(RS={0.5*(3.8263+27.7*ZV-9.0796*ZV^2+.9678*ZV^3-.03237*ZV^4)}
+ BV={ZV-0.5*.02*(3.8263+27.7*ZV-9.0796*ZV^2+.9678*ZV^3-.03237*ZV^4)} 
+ CJO={1560P*ZV^-.825} TT=50N M=.33 VJ=.75 IS=1E-11 N=1.27 IBV=20MA) 
.ENDS
