
*SRC=MDA2510;MDA2510;Diodes;Bridge;1000V 25A, Full Wave
*SYM=BRIDGE
.SUBCKT MDA2510 2  3   5  4
*              IN1 IN2 +  - 
D2 2 5 D2510
D3 3 5 D2510
D4 4 3 D2510
D1 4 2 D2510
.MODEL D2510 D (IS=1.52E-08 N=1.59 BV=1.00E+03 IBV=5.00E-06
+ RS=1.79E-03 CJO=4.69E-10 VJ=.29 M=0.4 TT=4.32E-06)
* Motorola 1000 Volt  25.00 Amp   3.75 us  Si   Diode Bridge  07-08-1990
.ENDS
