
*SRC=MDA2506;MDA2506;Diodes;Bridge;600V 25A, Full Wave
*SYM=BRIDGE
.SUBCKT MDA2506 2  3   5  4
*              IN1 IN2 +  - 
D2 2 5 D2506
D3 3 5 D2506
D4 4 3 D2506
D1 4 2 D2506
.MODEL D2506 D (IS=1.52E-08 N=1.59 BV=6.00E+02 IBV=5.00E-06
+ RS=1.79E-03 CJO=4.69E-10 VJ=.29 M=0.4 TT=4.32E-06)
* Motorola 600 Volt  25.00 Amp   3.75 us  Si   Diode Bridge  07-08-1990
.ENDS
