
*SRC=MDA3500;MDA3500;Diodes;Bridge;50V 35A, Full Wave
*SYM=BRIDGE
.SUBCKT MDA3500 2    3  5  4
*               IN1 IN2 +  -
D2 2 5 D3500
D3 3 5 D3500
D4 4 3 D3500
D1 4 2 D3500
.MODEL D3500 D (IS=5.81E-08 N=1.65 BV=5.00E+01 IBV=5.00E-06
+ RS=1.74E-03 CJO=4.69E-10 VJ=.23 M=.45 TT=4.32E-06)
* Motorola 50 Volt  35.00 Amp   3.75 us  Si   Diode Bridge  07-08-1990
.ENDS
