
*SRC=MDA3501;MDA3501;Diodes;Bridge;100V 35A, Full Wave
*SYM=BRIDGE
.SUBCKT MDA3501 2   3   5   4
*              IN1  IN2 +   - 
D2 2 5 D3501
D3 3 5 D3501
D4 4 3 D3501
D1 4 2 D3501
.MODEL D3501 D (IS=5.81E-08 N=1.65 BV=1.00E+02 IBV=5.00E-06
+ RS=1.74E-03 CJO=4.69E-10 VJ=.23 M=.45 TT=4.32E-06)
* Motorola 100 Volt  35.00 Amp   3.75 us  Si   Diode Bridge  07-08-1990
.ENDS
