
*SRC=MDA4006;MDA4006;Diodes;Bridge;600V 40A, Full Wave
*SYM=BRIDGE
.SUBCKT MDA4006 2  3   5  4
*              IN1 IN2 +  - 
D2 2 5 D4006
D3 3 5 D4006
D4 4 3 D4006
D1 4 2 D4006
.MODEL D4006 D (IS=8.25E-09 N=1.51 BV=6.00E+02 IBV=5.00E-06
+ RS=2.09E-03 CJO=4.69E-10 VJ=.23 M=.45 TT=4.32E-06)
* Motorola 600 Volt  40.00 Amp   3.75 us  Si   Diode Bridge  07-08-1990
.ENDS
