
*SRC=CM100TF12;CM100TF12;IGBTs;w/Diode;Powerex 600V 100A
*SYM=IGBT
.SUBCKT CM100TF12 71 72 74
*     TERMINALS:  C  G  E
Q1  83 81 85     QOUT ;OFF
M1  81 82 83 83  MFIN L=1U W=1U
DSD 83 81  DO
DBE 85 81  DE
RC  85 71  4.72M
RE  83 73  472U
RG  72 82  1.5
CGE 82 83  5.85N
EGD 91  0 82 81  1
VFB 93  0  0
FFB 82 81  VFB  1
CGD 92 93  25.5N
R1  92  0  1
D1  91 92  DLIM
DHV 94 93  DR
R2  91 94  1
D2  94  0  DLIM
LE  73 74  7.5N
DLV 94 95  DR 13
RLV 95  0  1
ESD 96 93  POLY(1) 83 81 19  1
MLV 95 96 93 93  SW
DFW 74 71 CM100TF1
.MODEL CM100TF1 D (IS=142N RS=420U N=1.7 BV=600 IBV=10U
+ CJO=4.11N VJ=0.75 M=0.333 TT=158N)
.MODEL SW NMOS (LEVEL=3 VTO=0 KP=5)
.MODEL QOUT PNP (IS=17.6P NF=1.2 BF=5.1 CJE=35.2N TF=38.5N XTB=1.3)
.MODEL MFIN NMOS (LEVEL=3 VMAX=400K THETA=40M ETA=2.01M VTO=6 KP=5.23)
.MODEL DR D (IS=1.76P CJO=1.82N VJ=1 M=0.82)
.MODEL DO D (IS=1.76P BV=599 CJO=9.69N VJ=1 M=0.7)
.MODEL DE D (IS=1.76P BV=15 N=2)
.MODEL DLIM D (IS=100N)
.ENDS
