
*SRC=CM15TF12H;CM15TF12H;IGBTs;w/Diode;Powerex 600V 15A
*SYM=IGBT
.SUBCKT CM15TF12H 71 72 74
*     TERMINALS:  C  G  E
Q1  83 81 85     QOUT ;OFF
M1  81 82 83 83  MFIN L=1U W=1U
DSD 83 81  DO
DBE 85 81  DE
RC  85 71  31.5M
RE  83 73  3.15M
RG  72 82  10
CGE 82 83  880P
EGD 91  0 82 81  1
VFB 93  0  0
FFB 82 81  VFB  1
CGD 92 93  3.4N
R1  92  0  1
D1  91 92  DLIM
DHV 94 93  DR
R2  91 94  1
D2  94  0  DLIM
LE  73 74  7.5N
DLV 94 95  DR 13
RLV 95  0  1
ESD 96 93  POLY(1) 83 81 19  1
MLV 95 96 93 93  SW
DFW 74 71 CM15TF1D
.MODEL CM15TF1D D (IS=21.3N RS=2.8M N=1.7 BV=600 IBV=10U
+ CJO=618P VJ=0.75 M=0.333 TT=158N)
.MODEL SW NMOS (LEVEL=3 VTO=0 KP=5)
.MODEL QOUT PNP (IS=2.64P NF=1.2 BF=5.1 CJE=4.75N TF=14.9N XTB=1.3)
.MODEL MFIN NMOS (LEVEL=3 VMAX=400K THETA=40M ETA=2.01M VTO=6 KP=0.785)
.MODEL DR D (IS=264F CJO=243P VJ=1 M=0.82)
.MODEL DO D (IS=264F BV=599 CJO=1.35N VJ=1 M=0.7)
.MODEL DE D (IS=264F BV=15 N=2)
.MODEL DLIM D (IS=100N)
.ENDS
