
*SRC=CM15TF24H;CM15TF24H;IGBTs;w/Diode;Powerex 1200V 15A
*SYM=IGBT
.SUBCKT CM15TF24H 71 72 74
*     TERMINALS:  C  G  E
Q1  83 81 85     QOUT; OFF
M1  81 82 83 83  MFIN L=1U W=1U
DSD 83 81  DO
DBE 85 81  DE
RC  85 71  40.5M
RE  83 73  4.05M
RG  72 82  10
CGE 82 83  1.77N
EGD 91  0 82 81  1
VFB 93  0  0
FFB 82 81  VFB  1
CGD 92 93  5.1N
R1  92  0  1
D1  91 92  DLIM
DHV 94 93  DR
R2  91 94  1
D2  94  0  DLIM
LE  73 74  7.5N
DLV 94 95  DR 13
RLV 95  0  1
ESD 96 93  POLY(1) 83 81 19  1
MLV 95 96 93 93  SW
DFW 74 71 CM15TF24
.MODEL CM15TF24 D (IS=21.3N RS=2.8M N=1.7 BV=1.2K IBV=10U
+ CJO=618P VJ=0.75 M=0.333 TT=360N)
.MODEL SW NMOS (LEVEL=3 VTO=0 KP=5)
.MODEL QOUT PNP (IS=375F NF=1.2 BF=5.1 CJE=6.95N TF=14.9N XTB=1.3)
.MODEL MFIN NMOS (LEVEL=3 VMAX=705K THETA=40M ETA=1M VTO=6 KP=0.722)
.MODEL DR D (IS=37.5F CJO=364P VJ=1 M=0.82)
.MODEL DO D (IS=37.5F BV=1.2K CJO=1.85N VJ=1 M=0.7)
.MODEL DE D (IS=37.5F BV=15 N=2)
.MODEL DLIM D (IS=100N)
.ENDS
