
*SRC=CM200DY24;CM200DY24;IGBTs;w/Diode;Powerex 1200V 200A
*SYM=IGBT
.SUBCKT CM200DY24 71 72 74
*     TERMINALS:  C  G  E
Q1  83 81 85     QOUT; OFF
M1  81 82 83 83  MFIN L=1U W=1U
DSD 83 81  DO
DBE 85 81  DE
RC  85 71  3.03M
RE  83 73  303U
RG  72 82  0.75
CGE 82 83  21.4N
EGD 91  0 82 81  1
VFB 93  0  0
FFB 82 81  VFB  1
CGD 92 93  102N
R1  92  0  1
D1  91 92  DLIM
DHV 94 93  DR
R2  91 94  1
D2  94  0  DLIM
LE  73 74  7.5N
DLV 94 95  DR 13
RLV 95  0  1
ESD 96 93  POLY(1) 83 81 19  1
MLV 95 96 93 93  SW
DFW 74 71 CM200DY2
.MODEL CM200DY2 D (IS=284N RS=210U N=1.7 BV=1.2K IBV=10U
+ CJO=8.22N VJ=0.75 M=0.333 TT=360N)
.MODEL SW NMOS (LEVEL=3 VTO=0 KP=5)
.MODEL QOUT PNP (IS=5P NF=1.2 BF=5.1 CJE=130N TF=54.5N XTB=1.3)
.MODEL MFIN NMOS (LEVEL=3 VMAX=705K THETA=40M ETA=1M VTO=6 KP=9.63)
.MODEL DR D (IS=500F CJO=7.28N VJ=1 M=0.82)
.MODEL DO D (IS=500F BV=1.2K CJO=27.8N VJ=1 M=0.7)
.MODEL DE D (IS=500F BV=15 N=2)
.MODEL DLIM D (IS=100N)
.ENDS
