
*SRC=CM300HA24;CM300HA24;IGBTs;w/Diode;Powerex 1200V 300A
*SYM=IGBT
.SUBCKT CM300HA24 71 72 74
*     TERMINALS:  C  G  E
Q1  83 81 85     QOUT; OFF
M1  81 82 83 83  MFIN L=1U W=1U
DSD 83 81  DO
DBE 85 81  DE
RC  85 71  2.02M
RE  83 73  202U
RG  72 82  1.1
CGE 82 83  32.3N
EGD 91  0 82 81  1
VFB 93  0  0
FFB 82 81  VFB  1
CGD 92 93  119N
R1  92  0  1
D1  91 92  DLIM
DHV 94 93  DR
R2  91 94  1
D2  94  0  DLIM
LE  73 74  7.5N
DLV 94 95  DR 13
RLV 95  0  1
ESD 96 93  POLY(1) 83 81 19  1
MLV 95 96 93 93  SW
DFW 74 71 CM300HA2
.MODEL CM300HA2 D (IS=426N RS=140U N=1.7 BV=1.2K IBV=10U
+ CJO=12.3N VJ=0.75 M=0.333 TT=360N)
.MODEL SW NMOS (LEVEL=3 VTO=0 KP=5)
.MODEL QOUT PNP (IS=7.51P NF=1.2 BF=5.1 CJE=155N TF=66.7N XTB=1.3)
.MODEL MFIN NMOS (LEVEL=3 VMAX=705K THETA=40M ETA=1M VTO=6 KP=14.4)
.MODEL DR D (IS=751F CJO=8.5N VJ=1 M=0.82)
.MODEL DO D (IS=751F BV=1.2K CJO=36.2N VJ=1 M=0.7)
.MODEL DE D (IS=751F BV=15 N=2)
.MODEL DLIM D (IS=100N)
.ENDS
