
*SRC=CM400HA12;CM400HA12;IGBTs;w/Diode;Powerex 600V 400A
*SYM=IGBT
.SUBCKT CM400HA12 71 72 74
*     TERMINALS:  C  G  E
Q1  83 81 85     QOUT; OFF
M1  81 82 83 83  MFIN L=1U W=1U
DSD 83 81  DO
DBE 85 81  DE
RC  85 71  1.18M
RE  83 73  118U
RG  72 82  1.65
CGE 82 83  10.7N
EGD 91  0 82 81  1
VFB 93  0  0
FFB 82 81  VFB  1
CGD 92 93  102N
R1  92  0  1
D1  91 92  DLIM
DHV 94 93  DR
R2  91 94  1
D2  94  0  DLIM
LE  73 74  7.5N
DLV 94 95  DR 13
RLV 95  0  1
ESD 96 93  POLY(1) 83 81 19  1
MLV 95 96 93 93  SW
DFW 74 71 CM400HA1
.MODEL CM400HA1 D (IS=568N RS=105U N=1.7 BV=600 IBV=10U
+ CJO=16.4N VJ=0.75 M=0.333 TT=158N)
.MODEL SW NMOS (LEVEL=3 VTO=0 KP=5)
.MODEL QOUT PNP (IS=70.3P NF=1.2 BF=5.1 CJE=136N TF=77.1N XTB=1.3)
.MODEL MFIN NMOS (LEVEL=3 VMAX=400K THETA=40M ETA=2.01M VTO=6 KP=20.9)
.MODEL DR D (IS=7.03P CJO=7.28N VJ=1 M=0.82)
.MODEL DO D (IS=7.03P BV=599 CJO=33.7N VJ=1 M=0.7)
.MODEL DE D (IS=7.03P BV=15 N=2)
.MODEL DLIM D (IS=100N)
.ENDS
