
*SRC=CM50DY24H;CM50DY24H;IGBTs;w/Diode;Powerex 1200V 50A
*SYM=IGBT
.SUBCKT CM50DY24H 71 72 74
*     TERMINALS:  C  G  E
Q1  83 81 85     QOUT; OFF
M1  81 82 83 83  MFIN L=1U W=1U
DSD 83 81  DO
DBE 85 81  DE
RC  85 71  12.1M
RE  83 73  1.21M
RG  72 82  3
CGE 82 83  5.53N
EGD 91  0 82 81  1
VFB 93  0  0
FFB 82 81  VFB  1
CGD 92 93  28.9N
R1  92  0  1
D1  91 92  DLIM
DHV 94 93  DR
R2  91 94  1
D2  94  0  DLIM
LE  73 74  7.5N
DLV 94 95  DR 13
RLV 95  0  1
ESD 96 93  POLY(1) 83 81 19  1
MLV 95 96 93 93  SW
DFW 74 71 CM50DY24
.MODEL CM50DY24 D (IS=71N RS=840U N=1.7 BV=1.2K IBV=10U
+ CJO=2.06N VJ=0.75 M=0.333 TT=360N)
.MODEL SW NMOS (LEVEL=3 VTO=0 KP=5)
.MODEL QOUT PNP (IS=1.25P NF=1.2 BF=5.1 CJE=35N TF=27.2N XTB=1.3)
.MODEL MFIN NMOS (LEVEL=3 VMAX=705K THETA=40M ETA=1M VTO=6 KP=2.41)
.MODEL DR D (IS=125F CJO=2.06N VJ=1 M=0.82)
.MODEL DO D (IS=125F BV=1.2K CJO=6.15N VJ=1 M=0.7)
.MODEL DE D (IS=125F BV=15 N=2)
.MODEL DLIM D (IS=100N)
.ENDS
