
*SRC=CM600HA12;CM600HA12;IGBTs;w/Diode;Powerex 600V 600A
*SYM=IGBT
.SUBCKT CM600HA12 71 72 74
*     TERMINALS:  C  G  E
Q1  83 81 85     QOUT; OFF
M1  81 82 83 83  MFIN L=1U W=1U
DSD 83 81  DO
DBE 85 81  DE
RC  85 71  787U
RE  83 73  78.7U
RG  72 82  0.929
CGE 82 83  11.4N
EGD 91  0 82 81  1
VFB 93  0  0
FFB 82 81  VFB  1
CGD 92 93  221N
R1  92  0  1
D1  91 92  DLIM
DHV 94 93  DR
R2  91 94  1
D2  94  0  DLIM
LE  73 74  7.5N
DLV 94 95  DR 13
RLV 95  0  1
ESD 96 93  POLY(1) 83 81 19  1
MLV 95 96 93 93  SW
DFW 74 71 CM600HA1
.MODEL CM600HA1 D (IS=853N RS=70U N=1.7 BV=600 IBV=10U
+ CJO=24.7N VJ=0.75 M=0.333 TT=158N)
.MODEL SW NMOS (LEVEL=3 VTO=0 KP=5)
.MODEL QOUT PNP (IS=105P NF=1.2 BF=5.1 CJE=273N TF=94.4N XTB=1.3)
.MODEL MFIN NMOS (LEVEL=3 VMAX=400K THETA=40M ETA=2.01M VTO=6 KP=31.4)
.MODEL DR D (IS=10.5P CJO=15.8N VJ=1 M=0.82)
.MODEL DO D (IS=10.5P BV=599 CJO=52.2N VJ=1 M=0.7)
.MODEL DE D (IS=10.5P BV=15 N=2)
.MODEL DLIM D (IS=100N)
.ENDS
