
*SRC=CM75TF24H;CM75TF24H;IGBTs;w/Diode;Powerex 1200V 75A
*SYM=IGBT
.SUBCKT CM75TF24H 71 72 74
*     TERMINALS:  C  G  E
Q1  83 81 85     QOUT; OFF
M1  81 82 83 83  MFIN L=1U W=1U
DSD 83 81  DO
DBE 85 81  DE
RC  85 71  8.99M
RE  83 73  899U
RG  72 82  2
CGE 82 83  8.3N
EGD 91  0 82 81  1
VFB 93  0  0
FFB 82 81  VFB  1
CGD 92 93  34N
R1  92  0  1
D1  91 92  DLIM
DHV 94 93  DR
R2  91 94  1
D2  94  0  DLIM
LE  73 74  7.5N
DLV 94 95  DR 13
RLV 95  0  1
ESD 96 93  POLY(1) 83 81 19  1
MLV 95 96 93 93  SW
DFW 74 71 CM75TF24
.MODEL CM75TF24 D (IS=107N RS=560U N=1.7 BV=1.2K IBV=10U
+ CJO=3.08N VJ=0.75 M=0.333 TT=360N)
.MODEL SW NMOS (LEVEL=3 VTO=0 KP=5)
.MODEL QOUT PNP (IS=708F NF=1.2 BF=5.1 CJE=44.9N TF=33.4N XTB=1.3)
.MODEL MFIN NMOS (LEVEL=3 VMAX=705K THETA=40M ETA=1M VTO=6 KP=3.61)
.MODEL DR D (IS=70.8F CJO=2.43N VJ=1 M=0.82)
.MODEL DO D (IS=70.8F BV=1.2K CJO=11N VJ=1 M=0.7)
.MODEL DE D (IS=70.8F BV=15 N=2)
.MODEL DLIM D (IS=100N)
.ENDS
