
*SRC=GTG20N100;GTG20N100;IGBTs;No Diode;HARRIS 1000V 34A 130NS TO-247
*SYM=IGBT
.SUBCKT GTG20N100 71 72 74
*     TERMINALS:  C  G  E
Q1  83 81 85     QOUT; OFF
M1  81 82 83 83  MFIN L=1U W=1U
DSD 83 81  DO
DBE 85 81  DE
RC  85 71  57.4M
RE  83 73  5.74M
RG  72 82  4.41
CGE 82 83  3.1N
EGD 91  0 82 81  1
VFB 93  0  0
FFB 82 81  VFB  1
CGD 92 93  30.4N
R1  92  0  1
D1  91 92  DLIM
DHV 94 93  DR
R2  91 94  1
D2  94  0  DLIM
LE  73 74  7.5N
DLV 94 95  DR 13
RLV 95  0  1
ESD 96 93  POLY(1) 83 81 19  1
MLV 95 96 93 93  SW
.MODEL SW NMOS (LEVEL=3 VTO=0 KP=5)
.MODEL QOUT PNP (IS=8.84E-17 NF=1.2 BF=5.1 CJE=32.2N TF=130N XTB=1.3)
.MODEL MFIN NMOS (LEVEL=3 VMAX=603K THETA=53.3M ETA=1.2M VTO=4.5 KP=1.72)
.MODEL DR D (IS=8.84E-18 CJO=2.17N VJ=1 M=0.82)
.MODEL DO D (IS=8.84E-18 BV=999 CJO=1.75N VJ=1 M=0.7)
.MODEL DE D (IS=8.84E-18 BV=5 N=2)
.MODEL DLIM D (IS=100N)
.ENDS
