
*SRC=HGTD10N50;HGTD10N50;IGBTs;No Diode;HARRIS 500V 12A 350NS TO-251
*SYM=IGBT
.SUBCKT HGTD10N50 71 72 74
*     TERMINALS:  C  G  E
Q1  83 81 85     QOUT; OFF
M1  81 82 83 83  MFIN L=1U W=1U
DSD 83 81  DO
DBE 85 81  DE
RC  85 71  0.142
RE  83 73  14.2M
RG  72 82  86.2
CGE 82 83  346P
EGD 91  0 82 81  1
VFB 93  0  0
FFB 82 81  VFB  1
CGD 92 93  410P
R1  92  0  1
D1  91 92  DLIM
DHV 94 93  DR
R2  91 94  1
D2  94  0  DLIM
LE  73 74  7.5N
DLV 94 95  DR 13
RLV 95  0  1
ESD 96 93  POLY(1) 83 81 19  1
MLV 95 96 93 93  SW
.MODEL SW NMOS (LEVEL=3 VTO=0 KP=5)
.MODEL QOUT PNP (IS=5.37E-17 NF=1.2 BF=5.1 CJE=924P TF=350N XTB=1.3)
.MODEL MFIN NMOS (LEVEL=3 VMAX=349K THETA=73.8M ETA=2.41M VTO=3.25 KP=0.693)
.MODEL DR D (IS=5.37E-18 CJO=29.3P VJ=1 M=0.82)
.MODEL DO D (IS=5.37E-18 BV=499 CJO=514P VJ=1 M=0.7)
.MODEL DE D (IS=5.37E-18 BV=15 N=2)
.MODEL DLIM D (IS=100N)
.ENDS
