
*SRC=IRF1310;IRF1310;MOSFETs N;Power <=100V;IR 
*SYM=POWMOSN
.SUBCKT IRF1310 1 2 3
* External Node Designations
* Node 1 -> Drain
* Node 2 -> Gate
* Node 3 -> Source
M1 9 7 8 8 MM L=100u W=100u
* Default values used in MM:
* The voltage-dependent capacitances are
* not included. Other default values are:
*   RS=0 RD=0 LD=0 CBD=0 CBS=0 CGBO=0
.MODEL MM NMOS LEVEL=1 IS=1e-32
+ VTO=3.63122 LAMBDA=0 KP=35.017
+ CGSO=2.41576e-05 CGDO=2.63501e-07
RS 8 3 0.0273231
D1 3 1 MD
.MODEL MD D IS=1.52845e-09 RS=0.00743652 N=1.2982 BV=100
+ IBV=0.00025 EG=1 XTI=3.65242 TT=2.00001e-05
+ CJO=2.72404e-09 VJ=0.800983 M=0.501737 FC=0.1
RDS 3 1 4e+06
RD 9 1 0.0001
RG 2 7 6
D2 4 5 MD1
* Default values used in MD1:
*   RS=0 EG=1.11 XTI=3.0 TT=0
*   BV=infinite IBV=1mA
.MODEL MD1 D IS=1e-32 N=50
+ CJO=2.2506e-09 VJ=0.5 M=0.793881 FC=1e-08
D3 0 5 MD2
* Default values used in MD2:
*   EG=1.11 XTI=3.0 TT=0 CJO=0
*   BV=infinite IBV=1mA
.MODEL MD2 D IS=1e-10 N=0.412074 RS=3e-06
RL 5 10 1
FI2 7 9 VFI2 -1
VFI2 4 0 0
EV16 10 0 9 7 1
CAP 11 10 3.81086e-09
FI1 7 9 VFI1 -1
VFI1 11 6 0
RCAP 6 10 1
D4 0 6 MD3
* Default values used in MD3:
*   EG=1.11 XTI=3.0 TT=0 CJO=0
*   RS=0 BV=infinite IBV=1mA
.MODEL MD3 D IS=1e-10 N=0.412074
.ENDS
