
*SRC=IRF7104;IRF7104;MOSFETs P;Power <=100V;20V 2.3A .25ohm IR 
*SYM=POWMOSP
.SUBCKT IRF7104 1 2 3
* 1/2 of dual package
* External Node Designations
* Node 1 -> Drain
* Node 2 -> Gate
* Node 3 -> Source
M1 9 7 8 8 MM L=100u W=100u
* Default values used in MM:
* The voltage-dependent capacitances are
* not included. Other default values are:
*   RS=0 RD=0 LD=0 CBD=0 CBS=0 CGBO=0
.MODEL MM PMOS LEVEL=1 IS=1e-32
+ VTO=-2.27383 LAMBDA=0.033865 KP=1.98082
+ CGSO=1.44869e-06 CGDO=7.67452e-08
RS 8 3 0.0975376
D1 1 3 MD
.MODEL MD D IS=1e-17 RS=0.0442713 N=0.770986 BV=20
+ IBV=0.00025 EG=1.2 XTI=4 TT=9.99604e-05
+ CJO=1.41056e-10 VJ=3.04603 M=0.546806 FC=0.5
RDS 3 1 1e+06
RD 9 1 0.0346155
RG 2 7 6.91313
D2 5 4 MD1
* Default values used in MD1:
*   RS=0 EG=1.11 XTI=3.0 TT=0
*   BV=infinite IBV=1mA
.MODEL MD1 D IS=1e-32 N=50
+ CJO=1.93644e-10 VJ=1.01477 M=0.541603 FC=1e-08
D3 5 0 MD2
* Default values used in MD2:
*   EG=1.11 XTI=3.0 TT=0 CJO=0
*   BV=infinite IBV=1mA
.MODEL MD2 D IS=1e-10 N=0.4 RS=3e-06
RL 5 10 1
FI2 7 9 VFI2 -1
VFI2 4 0 0
EV16 10 0 9 7 1
CAP 11 10 4.02626e-10
FI1 7 9 VFI1 -1
VFI1 11 6 0
RCAP 6 10 1
D4 6 0 MD3
* Default values used in MD3:
*   EG=1.11 XTI=3.0 TT=0 CJO=0
*   RS=0 BV=infinite IBV=1mA
.MODEL MD3 D IS=1e-10 N=0.4
.ENDS IRF7104
