
*SRC=IRF7507P;IRF7507P;MOSFETs P;Power <=100V;20V 1.7A .27ohm IR
*SYM=POWMOSP
.SUBCKT IRF7507P 1 2 3
* 1/2 of dual package
* External Node Designations
* Node 1 -> Drain
* Node 2 -> Gate
* Node 3 -> Source
M1 9 7 8 8 MM L=100u W=100u
* Default values used in MM:
* The voltage-dependent capacitances are
* not included. Other default values are:
*   RS=0 RD=0 LD=0 CBD=0 CBS=0 CGBO=0
.MODEL MM PMOS LEVEL=1 IS=1e-32
+ VTO=-1.3699 LAMBDA=0 KP=2.56413
+ CGSO=1.78889e-06 CGDO=8.1717e-09
RS 8 3 0.0001
D1 1 3 MD
.MODEL MD D IS=1.74415e-09 RS=0.0359067 N=1.5 BV=20
+ IBV=0.00025 EG=1.2 XTI=1 TT=9.99999e-05
+ CJO=2.19368e-10 VJ=0.5 M=0.355581 FC=0.1
RDS 3 1 1.6e+07
RD 9 1 0.068957
RG 2 7 33.3726
D2 5 4 MD1
* Default values used in MD1:
*   RS=0 EG=1.11 XTI=3.0 TT=0
*   BV=infinite IBV=1mA
.MODEL MD1 D IS=1e-32 N=50
+ CJO=3.61738e-10 VJ=0.5 M=0.519086 FC=1e-08
D3 5 0 MD2
* Default values used in MD2:
*   EG=1.11 XTI=3.0 TT=0 CJO=0
*   BV=infinite IBV=1mA
.MODEL MD2 D IS=1e-10 N=0.400462 RS=3e-06
RL 5 10 1
FI2 7 9 VFI2 -1
VFI2 4 0 0
EV16 10 0 9 7 1
CAP 11 10 7.39637e-10
FI1 7 9 VFI1 -1
VFI1 11 6 0
RCAP 6 10 1
D4 6 0 MD3
* Default values used in MD3:
*   EG=1.11 XTI=3.0 TT=0 CJO=0
*   RS=0 BV=infinite IBV=1mA
.MODEL MD3 D IS=1e-10 N=0.400462
.ENDS IRF7507p
