
*SRC=IRF9Z34N;IRF9Z34N;MOSFETs P;Power <=100V;55V 19A .1ohm IR
*SYM=POWMOSP
.SUBCKT IRF9Z34N 1 2 3
* External Node Designations
* Node 1 -> Drain
* Node 2 -> Gate
* Node 3 -> Source
M1 9 7 8 8 MM L=100u W=100u
* Default values used in MM:
* The voltage-dependent capacitances are
* not included. Other default values are:
*   RS=0 RD=0 LD=0 CBD=0 CBS=0 CGBO=0
.MODEL MM PMOS LEVEL=1 IS=1e-32
+ VTO=-3.47886 LAMBDA=0.00429413 KP=4.39701
+ CGSO=4.93633e-06 CGDO=1e-11
RS 8 3 0.050256
D1 1 3 MD
.MODEL MD D IS=5.89407e-09 RS=0.0106564 N=1.5 BV=55
+ IBV=0.00025 EG=1.2 XTI=3.09863 TT=0.0001
+ CJO=4.50695e-10 VJ=5 M=0.674041 FC=0.5
RDS 3 1 2.2e+06
RD 9 1 0.0001
RG 2 7 12.0721
D2 5 4 MD1
* Default values used in MD1:
*   RS=0 EG=1.11 XTI=3.0 TT=0
*   BV=infinite IBV=1mA
.MODEL MD1 D IS=1e-32 N=50
+ CJO=8.67515e-10 VJ=0.542893 M=0.479137 FC=1e-08
D3 5 0 MD2
* Default values used in MD2:
*   EG=1.11 XTI=3.0 TT=0 CJO=0
*   BV=infinite IBV=1mA
.MODEL MD2 D IS=1e-10 N=0.4 RS=3.00005e-06
RL 5 10 1
FI2 7 9 VFI2 -1
VFI2 4 0 0
EV16 10 0 9 7 1
CAP 11 10 1.26402e-09
FI1 7 9 VFI1 -1
VFI1 11 6 0
RCAP 6 10 1
D4 6 0 MD3
* Default values used in MD3:
*   EG=1.11 XTI=3.0 TT=0 CJO=0
*   RS=0 BV=infinite IBV=1mA
.MODEL MD3 D IS=1e-10 N=0.4
.ENDS IRF9z34n
