
*SRC=IRF9410;IRF9410;MOSFETs N;Power <=100V;30V 7A .03ohm IR
*SYM=POWMOSN
.SUBCKT IRF9410 1 2 3
* External Node Designations
* Node 1 -> Drain
* Node 2 -> Gate
* Node 3 -> Source
M1 9 7 8 8 MM L=100u W=100u
* Default values used in MM:
* The voltage-dependent capacitances are
* not included. Other default values are:
*   RS=0 RD=0 LD=0 CBD=0 CBS=0 CGBO=0
.MODEL MM NMOS LEVEL=1 IS=1e-32
+ VTO=2.63818 LAMBDA=0.00689071 KP=29.2663
+ CGSO=4.75166e-06 CGDO=1.00015e-11
RS 8 3 0.0178868
D1 3 1 MD
.MODEL MD D IS=1.03625e-10 RS=0.00865797 N=1.2563 BV=30
+ IBV=0.00025 EG=1.2 XTI=3.1803 TT=0.0001
+ CJO=5.9109e-10 VJ=1.72136 M=0.480272 FC=0.5
RDS 3 1 1.2e+07
RD 9 1 0.0001
RG 2 7 4.33806
D2 4 5 MD1
* Default values used in MD1:
*   RS=0 EG=1.11 XTI=3.0 TT=0
*   BV=infinite IBV=1mA
.MODEL MD1 D IS=1e-32 N=50
+ CJO=7.40642e-10 VJ=0.5 M=0.506168 FC=1e-08
D3 0 5 MD2
* Default values used in MD2:
*   EG=1.11 XTI=3.0 TT=0 CJO=0
*   BV=infinite IBV=1mA
.MODEL MD2 D IS=1e-10 N=0.400114 RS=3e-06
RL 5 10 1
FI2 7 9 VFI2 -1
VFI2 4 0 0
EV16 10 0 9 7 1
CAP 11 10 9.82848e-10
FI1 7 9 VFI1 -1
VFI1 11 6 0
RCAP 6 10 1
D4 0 6 MD3
* Default values used in MD3:
*   EG=1.11 XTI=3.0 TT=0 CJO=0
*   RS=0 BV=infinite IBV=1mA
.MODEL MD3 D IS=1e-10 N=0.400114
.ENDS IRF9410
