
*SRC=IRFP450M;IRFP450M;MOSFETs N;Power >100V;500V 14A .4ohm IR
*SYM=POWMOSN
.SUBCKT IRFP450M 1 2 3
* External Node Designations
* Node 1 -> Drain
* Node 2 -> Gate
* Node 3 -> Source
M1 9 7 8 8 MM L=100u W=100u
* Default values used in MM:
* The voltage-dependent capacitances are
* not included. Other default values are:
*   RS=0 RD=0 LD=0 CBD=0 CBS=0 CGBO=0
.MODEL MM NMOS LEVEL=1 IS=1e-32
+ VTO=3.87644 LAMBDA=0.00940033 KP=12.4569
+ CGSO=2.69489e-05 CGDO=1e-11
RS 8 3 0.032891
D1 3 1 MD
.MODEL MD D IS=2.01523e-08 RS=0.0111481 N=1.5 BV=500
+ IBV=0.00025 EG=1.2 XTI=4 TT=1.99975e-05
+ CJO=3.06152e-09 VJ=3.45041 M=0.9 FC=0.1
RDS 3 1 2e+07
RD 9 1 0.260532
RG 2 7 4.12362
D2 4 5 MD1
* Default values used in MD1:
*   RS=0 EG=1.11 XTI=3.0 TT=0
*   BV=infinite IBV=1mA
.MODEL MD1 D IS=1e-32 N=50
+ CJO=4.2326e-09 VJ=1.07068 M=0.9 FC=1e-08
D3 0 5 MD2
* Default values used in MD2:
*   EG=1.11 XTI=3.0 TT=0 CJO=0
*   BV=infinite IBV=1mA
.MODEL MD2 D IS=1e-10 N=0.556576 RS=2.99999e-06
RL 5 10 1
FI2 7 9 VFI2 -1
VFI2 4 0 0
EV16 10 0 9 7 1
CAP 11 10 4.2326e-09
FI1 7 9 VFI1 -1
VFI1 11 6 0
RCAP 6 10 1
D4 0 6 MD3
* Default values used in MD3:
*   EG=1.11 XTI=3.0 TT=0 CJO=0
*   RS=0 BV=infinite IBV=1mA
.MODEL MD3 D IS=1e-10 N=0.556576
.ENDS IRFP450
