
*SRC=IRFRU9120;IRFRU9120;MOSFETs P;Power <=100V;100V 5.6A .6ohm IR
*SYM=POWMOSP
.SUBCKT IRFRU9120 1 2 3
* External Node Designations
* Node 1 -> Drain
* Node 2 -> Gate
* Node 3 -> Source
M1 9 7 8 8 MM L=100u W=100u
* Default values used in MM:
* The voltage-dependent capacitances are
* not included. Other default values are:
*   RS=0 RD=0 LD=0 CBD=0 CBS=0 CGBO=0
.MODEL MM PMOS LEVEL=1 IS=1e-32
+ VTO=-3.76493 LAMBDA=9.99999 KP=0.82029
+ CGSO=3.50958e-06 CGDO=1e-11
RS 8 3 0.391672
D1 1 3 MD
.MODEL MD D IS=3.03444e-27 RS=0.604715 N=0.996932 BV=100
+ IBV=0.00025 EG=1.2 XTI=4 TT=0
+ CJO=5.32347e-10 VJ=1.05368 M=0.438313 FC=0.5
RDS 3 1 1e+06
RD 9 1 0.00901603
RG 2 7 13.0532
D2 5 4 MD1
* Default values used in MD1:
*   RS=0 EG=1.11 XTI=3.0 TT=0
*   BV=infinite IBV=1mA
.MODEL MD1 D IS=1e-32 N=50
+ CJO=2.91933e-10 VJ=3.4553 M=0.9 FC=1e-08
D3 5 0 MD2
* Default values used in MD2:
*   EG=1.11 XTI=3.0 TT=0 CJO=0
*   BV=infinite IBV=1mA
.MODEL MD2 D IS=1e-10 N=0.432889 RS=3e-06
RL 5 10 1
FI2 7 9 VFI2 -1
VFI2 4 0 0
EV16 10 0 9 7 1
CAP 11 10 7.1619e-10
FI1 7 9 VFI1 -1
VFI1 11 6 0
RCAP 6 10 1
D4 6 0 MD3
* Default values used in MD3:
*   EG=1.11 XTI=3.0 TT=0 CJO=0
*   RS=0 BV=infinite IBV=1mA
.MODEL MD3 D IS=1e-10 N=0.432889
.ENDS
