
*SRC=IRHM7360SE;IRHM7360SE;MOSFETs N;Power >100V;400V 22A .2ohm IR
*SYM=POWMOSN
.SUBCKT IRHM7360SE 1 2 3
* External Node Designations
* Node 1 -> Drain
* Node 2 -> Gate
* Node 3 -> Source
M1 9 7 8 8 MM L=100u W=100u
* Default values used in MM:
* The voltage-dependent capacitances are
* not inclUDed. Other default values are:
*   RS=0 RD=0 LD=0 CBD=0 CBS=0 CGBO=0
.MODEL MM NMOS LEVEL=1 IS=1e-32
+ VTO=4.5 LAMBDA=0.00418369 KP=16.9812
+ CGSO=3.54403e-05 CGDO=1e-11
RS 8 3 0.056313
D1 3 1 MD
.MODEL MD D IS=1.22339e-08 RS=0.0126663 N=1.5 BV=400
+ IBV=0.001 EG=1 XTI=2.6622 TT=1.9975e-05
+ CJO=8.64982e-09 VJ=0.525728 M=0.814525 FC=0.1
RDS 3 1 1e+06
RD 9 1 0.109804
RG 2 7 8.61184
D2 4 5 MD1
* Default values used in MD1:
*   RS=0 EG=1.11 XTI=3.0 TT=0
*   BV=infinite IBV=1mA
.MODEL MD1 D IS=1e-32 N=50
+ CJO=4.30346e-09 VJ=3.0784 M=0.9 FC=1e-08
D3 0 5 MD2
* Default values used in MD2:
*   EG=1.11 XTI=3.0 TT=0 CJO=0
*   BV=infinite IBV=1mA
.MODEL MD2 D IS=1e-10 N=0.40346 RS=3.00002e-06
RL 5 10 1
FI2 7 9 VFI2 -1
VFI2 4 0 0
EV16 10 0 9 7 1
CAP 11 10 4.59896e-09
FI1 7 9 VFI1 -1
VFI1 11 6 0
RCAP 6 10 1
D4 0 6 MD3
* Default values used in MD3:
*   EG=1.11 XTI=3.0 TT=0 CJO=0
*   RS=0 BV=infinite IBV=1mA
.MODEL MD3 D IS=1e-10 N=0.40346
.ENDS IRHM7360se
