
*SRC=IRLl3303;IRLl3303;MOSFETs N;Power <=100V;30V 4.6A .031ohm IR
*SYM=POWMOSN
.SUBCKT IRLl3303 1 2 3
* External Node Designations
* Node 1 -> Drain
* Node 2 -> Gate
* Node 3 -> Source
M1 9 7 8 8 MM L=100u W=100u
* Default values used in MM:
* The voltage-dependent capacitances are
* not inclUDed. Other default values are:
*   RS=0 RD=0 LD=0 CBD=0 CBS=0 CGBO=0
.MODEL MM NMOS LEVEL=1 IS=1e-32
+ VTO=2.44224 LAMBDA=0 KP=30.3505
+ CGSO=7.47374e-06 CGDO=1.00001e-11
RS 8 3 0.0204984
D1 3 1 MD
.MODEL MD D IS=2.42929e-09 RS=0.00972241 N=1.45388 BV=30
+ IBV=0.00025 EG=1 XTI=1 TT=9.99945e-05
+ CJO=7.20492e-10 VJ=0.531024 M=0.394706 FC=0.1
RDS 3 1 1.2e+06
RD 9 1 0.0001
RG 2 7 4.25627
D2 4 5 MD1
* Default values used in MD1:
*   RS=0 EG=1.11 XTI=3.0 TT=0
*   BV=infinite IBV=1mA
.MODEL MD1 D IS=1e-32 N=50
+ CJO=1.32857e-09 VJ=0.5 M=0.561119 FC=1e-08
D3 0 5 MD2
* Default values used in MD2:
*   EG=1.11 XTI=3.0 TT=0 CJO=0
*   BV=infinite IBV=1mA
.MODEL MD2 D IS=1e-10 N=0.416456 RS=3e-06
RL 5 10 1
FI2 7 9 VFI2 -1
VFI2 4 0 0
EV16 10 0 9 7 1
CAP 11 10 1.93275e-09
FI1 7 9 VFI1 -1
VFI1 11 6 0
RCAP 6 10 1
D4 0 6 MD3
* Default values used in MD3:
*   EG=1.11 XTI=3.0 TT=0 CJO=0
*   RS=0 BV=infinite IBV=1mA
.MODEL MD3 D IS=1e-10 N=0.416456
.ENDS
