
*SRC=IRLMl2402;IRLMl2402;MOSFETs N;Power <=100V;20V 1.2A .25ohm IR
*SYM=POWMOSN
.SUBCKT IRLMl2402 1 2 3
* External Node Designations
* Node 1 -> Drain
* Node 2 -> Gate
* Node 3 -> Source
M1 9 7 8 8 MM L=100u W=100u
* Default values used in MM:
* The voltage-dependent capacitances are
* not inclUDed. Other default values are:
*   RS=0 RD=0 LD=0 CBD=0 CBS=0 CGBO=0
.MODEL MM NMOS LEVEL=1 IS=1e-32
+ VTO=1.38167 LAMBDA=0.0033669 KP=5.87916
+ CGSO=8.44589e-07 CGDO=9.30312e-08
RS 8 3 0.0842713
D1 3 1 MD
.MODEL MD D IS=1.66436e-09 RS=0.0902493 N=1.5 BV=20
+ IBV=0.00025 EG=1.2 XTI=3.0097 TT=9.99845e-05
+ CJO=9.18187e-11 VJ=0.574854 M=0.371811 FC=0.5
RDS 3 1 1.6e+07
RD 9 1 0.0384327
RG 2 7 4.09017
D2 4 5 MD1
* Default values used in MD1:
*   RS=0 EG=1.11 XTI=3.0 TT=0
*   BV=infinite IBV=1mA
.MODEL MD1 D IS=1e-32 N=50
+ CJO=1.46388e-10 VJ=0.5 M=0.662489 FC=1e-08
D3 0 5 MD2
* Default values used in MD2:
*   EG=1.11 XTI=3.0 TT=0 CJO=0
*   BV=infinite IBV=1mA
.MODEL MD2 D IS=1e-10 N=0.4 RS=3e-06
RL 5 10 1
FI2 7 9 VFI2 -1
VFI2 4 0 0
EV16 10 0 9 7 1
CAP 11 10 3.65064e-10
FI1 7 9 VFI1 -1
VFI1 11 6 0
RCAP 6 10 1
D4 0 6 MD3
* Default values used in MD3:
*   EG=1.11 XTI=3.0 TT=0 CJO=0
*   RS=0 BV=infinite IBV=1mA
.MODEL MD3 D IS=1e-10 N=0.4
.ENDS irlml2402
