
*SRC=APT35G60BN;APT35G60;IGBTs;No Diode;600V 35A
*SYM=IGBT
.SUBCKT APT35G60 10 20 30
*     TERMINALS:  C  G  E
Q1  30  1 10     QOUT
M1   1  2 30 30  MFIN L=1U W=1U
RG  20  2  4.28
CGD  4  1  354P
RGD  4  1  10MEG
MGD  4  5  2  2  SW L=1U W=1U
EGD  5  2  2  1  1
DDG  2  6  DCGD
MDG  6  7  1  1  SW L=1U W=1U
EDG  7  1  1  2  1
DDS 30  1  DSUB
VEC  8 10  23.5
DEC  1  8  DBE
.MODEL QOUT PNP (IS=5.83P BF=2.1 RE=19.3M TF=35.8N TR=1.02U)
.MODEL MFIN NMOS (LEVEL=1 VTO=3.8
+ KP=.591 IS=5.83P RS=6M CGSO=1.05M)
.MODEL SW NMOS (LEVEL=1 VTO=0 KP=134.5M)
.MODEL DCGD D (CJO=354P VJ=.41 M=.5)
.MODEL DSUB D (IS=5.83P BV=599 IBV=1M CJO=180P VJ=.8 M=.4 TT=864P)
.MODEL DBE  D (IS=5.83P)
*  600 Volt  35 Amp  N-Channel IGBT  07-27-1991
.ENDS
