
*SRC=I6MBI10L;I6MBI10L;IGBTs;w/Diode;600V 10A 37.5NS 
*SYM=IGBT
.SUBCKT I6MBI10L 71 72 74
*     TERMINALS:  C  G  E
*  600 Volt  10 Amp  37.5NS  N-Channel IGBT  11-24-1993
Q1  83 81 85     QOUT
M1  81 82 83 83  MFIN L=1U W=1U
DSD 83 81  DO
DBE 85 81  DE
RC  85 71  .108
RE  83 73  10.8M
RG  72 82  15
CGE 82 83  945P
CGC 82 71  1P
EGD 91  0 82 81  1
VFB 93  0  0
FFB 82 81  VFB  1
CGD 92 93  937P
R1  92  0  1
D1  91 92  DLIM
DHV 94 93  DR
R2  91 94  1
D2  94  0  DLIM
LE  73 74  7.5N
DLV 94 95  DR 13
RLV 95  0  1
ESD 96 93  POLY(1) 83 81  19  1
MLV 95 96 93 93  SW
DFW 74 71 DMBI10
.MODEL SW NMOS (LEVEL=3 VTO=0 KP=5)
.MODEL QOUT PNP (IS=94.4F NF=1.2 BF=5.1 CJE=2.31N TF=37.5N XTB=1.3)
.MODEL MFIN NMOS (LEVEL=3 VMAX=400K THETA=54.5M ETA=2M VTO=4.4 KP=.54)
.MODEL DR D (IS=9.44F CJO=66.9P VJ=1 M=.82)
.MODEL DO D (IS=9.44F BV=600 CJO=1.37N VJ=1 M=.7)
.MODEL DE D (IS=9.44F BV=14.3 N=2)
.MODEL DLIM D (IS=100N)
.MODEL DMBI10 D (IS=1.15U RS=.177 N=1.75 BV=600 IBV=1M
+ CJO=412P VJ=.75 M=.333 TT=432N)
.ENDS 
