
*SRC=ID221K05;ID221K05;IGBTs;w/Diode;1000V 50A
*SYM=IGBT
.SUBCKT ID221K05 10 20 30
*     TERMINALS:  C  G  E
Q1  30  1 10     QOUT
M1   1  2 30 30  MFIN L=1U W=1U
RG  20  2  3
CGD  4  1  1.26N
RGD  4  1  10MEG
MGD  4  5  2  2  SW L=1U W=1U
EGD  5  2  2  1  1
DDG  2  6  DCGD
MDG  6  7  1  1  SW L=1U W=1U
EDG  7  1  1  2  1
DDS 30  1  DSUB
VEC  8 10  13.5
DEC  1  8  DBE
DFW 30 10 DK05
.MODEL DK05 D (IS=86.5N RS=24.2M N=2.07
+ CJO=2.05N VJ=.75 M=.333 TT=360N)
*  600 Volt  50 Amp  .25 us  Si Diode  08-19-1991
.MODEL QOUT PNP (IS=8.33P BF=3.3 RE=7.08M TF=80.5N TR=680N)
.MODEL MFIN NMOS (LEVEL=1 VTO=4
+ KP=.712 IS=8.33P RS=3.04M CGSO=9.75M)
.MODEL SW NMOS (LEVEL=1 VTO=0 KP=35.6M)
.MODEL DCGD D (CJO=1.26N VJ=.41 M=.5)
.MODEL DSUB D (IS=8.33P BV=999 IBV=1M CJO=939P VJ=.8 M=.4 TT=576P)
.MODEL DBE  D (IS=8.33P)
*  1000 Volt  50 Amp  N-Channel IGBT  08-19-1991
.ENDS
