
*SRC=HGTP10N40C1D;IGTP104D;IGBTs;No Diode;400V 17.5A
*SYM=IGBT
.SUBCKT IGTP104D 71 72 74
*     TERMINALS:  C  G  E
*  400 Volt  17.5 Amp  67NS  N-Channel IGBT  06-18-1992
*  Harris part number HGTP10N40C1D
Q1  83 81 85     QOUT ;OFF
M1  81 82 83 83  MFIN L=1U W=1U
DSD 83 81  DO
DBE 85 81  DE
RC  85 71  54.6M
RE  83 73  5.46M
RG  72 82  15.6
CGE 82 83  675P
CGC 82 71  1P
EGD 91  0 82 81  1
VFB 93  0  0
FFB 82 81  VFB  1
CGD 92 93  5.61N
R1  92  0  1
D1  91 92  DLIM
DHV 94 93  DR
R2  91 94  1
D2  94  0  DLIM
DLV 94 95  DR 13
RLV 95  0  1
ESD 96 93  POLY(1) 83 81  19  1
MLV 95 96 93 93  SW
LE  73 74  7.5N
DPROT  74 71  DGT
.MODEL SW NMOS (LEVEL=3 VTO=0 KP=5)
.MODEL QOUT PNP (IS=1.91F NF=1.2 BF=5.1 CJE=6.44N TF=60N XTB=1.3)
.MODEL MFIN NMOS (LEVEL=3 VMAX=298K THETA=60M ETA=3.01M VTO=3.8 KP=1.41)
.MODEL DR D (IS=1.91E-17 CJO=401P VJ=1 M=.82)
.MODEL DO D (IS=1.91E-17 BV=400 CJO=830P VJ=1 M=.7)
.MODEL DE D (IS=1.91E-17 BV=14.3 N=2)
.MODEL DLIM D (IS=100U)
.MODEL DGT D (IS=1.91E-17 RS=9.94M N=3.68 BV=600 IBV=10U
+ CJO=721P VJ=.75 M=.333 TT=144U)
.ENDS 
