
*SRC=2N6976;IN6976;IGBTs;No Diode;500V 5A
*SYM=IGBT
.SUBCKT IN6976   10 20 30
*     TERMINALS:  C  G  E
Q1  30  1 10     QOUT
M1   1  2 30 30  MFIN L=1U W=1U
RG  20  2  30
CGD  4  1  71.6P
RGD  4  1  10MEG
MGD  4  5  2  2  SW L=1U W=1U
EGD  5  2  2  1  1
DDG  2  6  DCGD
MDG  6  7  1  1  SW L=1U W=1U
EDG  7  1  1  2  1
DDS 30  1  DSUB
VEC  8 10  3.5
DEC  1  8  DBE
.MODEL QOUT PNP (IS=1.09P BF=3.65 RE=36.9M TF=7.16N TR=510N)
.MODEL MFIN NMOS (LEVEL=3 VMAX=15.6MEG THETA=70M VTO=3
+ KP=.56 IS=1.09P RS=17.1M CGSO=491U)
.MODEL SW NMOS (LEVEL=3 VTO=0 KP=19M)
.MODEL DCGD D (CJO=71.6P VJ=.41 M=.5)
.MODEL DSUB D (IS=1.09P BV=499 IBV=1M CJO=48.4P VJ=.8 M=.4 TT=432P)
.MODEL DBE  D (IS=1.09P)
*  500 Volt  5 Amp  N-Channel IGBT  07-27-1991
.ENDS
