
*SRC=IRGBC30F;IRGBC30F;IGBTs;No Diode;600V 31A
*SYM=IGBT
.SUBCKT IRGBC30F 10 20 30
*     TERMINALS:  C  G  E
Q1  30  1 10     QOUT
M1   1  2 30 30  MFIN L=1U W=1U
RG  20  2  4.84
CGD  4  1  86.1P
RGD  4  1  10MEG
MGD  4  5  2  2  SW L=1U W=1U
EGD  5  2  2  1  1
DDG  2  6  DCGD
MDG  6  7  1  1  SW L=1U W=1U
EDG  7  1  1  2  1
DDS 30  1  DSUB
VEC  8 10  23.5
DEC  1  8  DBE
.MODEL QOUT PNP (IS=4.93P BF=3.3 RE=8.2M TF=3.76N TR=493N)
.MODEL MFIN NMOS (LEVEL=1 VTO=4.2
+ KP=.546 IS=4.93P RS=3.52M CGSO=660U)
.MODEL SW NMOS (LEVEL=1 VTO=0 KP=368.4M)
.MODEL DCGD D (CJO=86.1P VJ=.41 M=.5)
.MODEL DSUB D (IS=4.93P BV=599 IBV=1M CJO=57.1P VJ=.8 M=.4 TT=417P)
.MODEL DBE  D (IS=4.93P)
*  600 Volt  31 Amp  N-Channel IGBT  08-19-1991
.ENDS
