
*SRC=IRGBC20S;IRGBC20S;IGBTs;No Diode;600V 19A
*SYM=IGBT
.SUBCKT IRGBC20S 10 20 30
*     TERMINALS:  C  G  E
Q1  30  1 10     QOUT
M1   1  2 30 30  MFIN L=1U W=1U
RG  20  2  7.89
CGD  4  1  44.8P
RGD  4  1  10MEG
MGD  4  5  2  2  SW L=1U W=1U
EGD  5  2  2  1  1
DDG  2  6  DCGD
MDG  6  7  1  1  SW L=1U W=1U
EDG  7  1  1  2  1
DDS 30  1  DSUB
VEC  8 10  13.5
DEC  1  8  DBE
.MODEL QOUT PNP (IS=3.02P BF=2.1 RE=13.3M TF=5.37N TR=1.87U)
.MODEL MFIN NMOS (LEVEL=1 VTO=4.2
+ KP=.341 IS=3.02P RS=4.14M CGSO=354U)
.MODEL SW NMOS (LEVEL=1 VTO=0 KP=46M)
.MODEL DCGD D (CJO=44.8P VJ=.41 M=.5)
.MODEL DSUB D (IS=3.02P BV=599 IBV=1M CJO=27.6P VJ=.8 M=.4 TT=1.58N)
.MODEL DBE  D (IS=3.02P)
*  600 Volt  19 Amp  N-Channel IGBT  08-19-1991
.ENDS
