
*SRC=IRGBC40F;IRGBC40F;IGBTs;No Diode;600V 49A
*SYM=IGBT
.SUBCKT IRGBC40F 10 20 30
*     TERMINALS:  C  G  E
Q1  30  1 10     QOUT
M1   1  2 30 30  MFIN L=1U W=1U
RG  20  2  3.06
CGD  4  1  172P
RGD  4  1  10MEG
MGD  4  5  2  2  SW L=1U W=1U
EGD  5  2  2  1  1
DDG  2  6  DCGD
MDG  6  7  1  1  SW L=1U W=1U
EDG  7  1  1  2  1
DDS 30  1  DSUB
VEC  8 10  23.5
DEC  1  8  DBE
.MODEL QOUT PNP (IS=7.79P BF=3.08 RE=4.56M TF=6.62N TR=646N)
.MODEL MFIN NMOS (LEVEL=1 VTO=4.2
+ KP=.932 IS=7.79P RS=1.86M CGSO=1.48M)
.MODEL SW NMOS (LEVEL=1 VTO=0 KP=65.3M)
.MODEL DCGD D (CJO=172P VJ=.41 M=.5)
.MODEL DSUB D (IS=7.79P BV=599 IBV=1M CJO=114P VJ=.8 M=.4 TT=547P)
.MODEL DBE  D (IS=7.79P)
*  600 Volt  49 Amp  N-Channel IGBT  08-19-1991
.ENDS
