
*SRC=IRGBC30S;IRGBC30S;IGBTs;No Diode;600V 34A
*SYM=IGBT
.SUBCKT IRGBC30S 10 20 30
*     TERMINALS:  C  G  E
Q1  30  1 10     QOUT
M1   1  2 30 30  MFIN L=1U W=1U
RG  20  2  4.41
CGD  4  1  79.2P
RGD  4  1  10MEG
MGD  4  5  2  2  SW L=1U W=1U
EGD  5  2  2  1  1
DDG  2  6  DCGD
MDG  6  7  1  1  SW L=1U W=1U
EDG  7  1  1  2  1
DDS 30  1  DSUB
VEC  8 10  13.5
DEC  1  8  DBE
.MODEL QOUT PNP (IS=5.41P BF=2.27 RE=7.47M TF=6.26N TR=2.04U)
.MODEL MFIN NMOS (LEVEL=1 VTO=4.2
+ KP=.605 IS=5.41P RS=2.44M CGSO=691U)
.MODEL SW NMOS (LEVEL=1 VTO=0 KP=.132)
.MODEL DCGD D (CJO=79.2P VJ=.41 M=.5)
.MODEL DSUB D (IS=5.41P BV=599 IBV=1M CJO=52.5P VJ=.8 M=.4 TT=1.72N)
.MODEL DBE  D (IS=5.41P)
*  600 Volt  34 Amp  N-Channel IGBT  08-19-1991
.ENDS
