
*SRC=IRGPC50F;IRGPC50F;IGBTs;No Diode;600V 70A
*SYM=IGBT
.SUBCKT IRGPC50F 71 72 74
*     TERMINALS:  C  G  E
* IR 600 Volt  70 Amp  67NS  N-Channel IGBT  06-19-1992
Q1  83 81 85     QOUT ;OFF
M1  81 82 83 83  MFIN L=1U W=1U
DSD 83 81  DO
DBE 85 81  DE
RC  85 71  1.8M
RE  83 73  1.48M
RG  72 82  53.5
CGE 82 83  2.98N
CGC 82 71  1P
EGD 91  0 82 81  1
VFB 93  0  0
FFB 82 81  VFB  1
CGD 92 93  2.95N
R1  92  0  1
D1  91 92  DLIM
DHV 94 93  DR
R2  91 94  1
D2  94  0  DLIM
DLV 94 95  DR 13
RLV 95  0  1
ESD 96 93  POLY(1) 83 81  30  1
MLV 95 96 93 93  SW
LE  73 74  13N
.MODEL SW NMOS (LEVEL=3 VTO=0 KP=20)
.MODEL QOUT PNP (IS=20P NF=1.2 BF=5.1 CJE=7.32N TF=67N XTB=1.3)
.MODEL MFIN NMOS (LEVEL=3 VMAX=400K THETA=72.7M ETA=2M VTO=3.9 KP=2.73)
.MODEL DR D (IS=200F CJO=211P VJ=1 M=.82)
.MODEL DO D (IS=200F BV=600 CJO=4.36N VJ=1 M=.7)
.MODEL DE D (IS=200F BV=24.3 N=2)
.MODEL DLIM D (IS=100U)
.ENDS 
