
*SRC=IS621K30;IS621K30;IGBTs;w/Diode;1000V 300A
*SYM=IGBT
.SUBCKT IS621K30 10 20 30
*     TERMINALS:  C  G  E
Q1  30  1 10     QOUT
M1   1  2 30 30  MFIN L=1U W=1U
RG  20  2  .5
CGD  4  1  7.56N
RGD  4  1  10MEG
MGD  4  5  2  2  SW L=1U W=1U
EGD  5  2  2  1  1
DDG  2  6  DCGD
MDG  6  7  1  1  SW L=1U W=1U
EDG  7  1  1  2  1
DDS 30  1  DSUB
VEC  8 10  13.5
DEC  1  8  DBE
DFW 30 10 DK30
.MODEL DK30 D (IS=13.2U RS=5.18M N=2.59
+ CJO=12.3N VJ=.75 M=.333 TT=360U)
*  600 Volt  300 Amp  250 us  Si Diode  08-19-1991
.MODEL QOUT PNP (IS=50P BF=2.72 RE=1.18M TF=143N TR=2.21U)
.MODEL MFIN NMOS (LEVEL=1 VTO=4
+ KP=4.93 IS=50P RS=440U CGSO=58.5M)
.MODEL SW NMOS (LEVEL=1 VTO=0 KP=.246)
.MODEL DCGD D (CJO=7.56N VJ=.41 M=.5)
.MODEL DSUB D (IS=50P BV=999 IBV=1M CJO=5.63N VJ=.8 M=.4 TT=1.87N)
.MODEL DBE  D (IS=50P)
*  1000 Volt  300 Amp  N-Channel IGBT  08-19-1991
.ENDS
