
*SRC=IXGH10N60A;IXH10N6A;IGBTs;No Diode;600V 20A
*SYM=IGBT
.SUBCKT IXH10N6A 71 72 74
*     TERMINALS:  C  G  E
* IXYS 600 Volt  20 Amp  125NS  N-Channel IGBT  02-26-1993
Q1  83 81 85     QOUT
M1  81 82 83 83  MFIN L=1U W=1U
DSD 83 81  DO
DBE 85 81  DE
RC  85 71  71.1M
RE  83 73  7.11M
RG  72 82  7.5
CGE 82 83  720P
CGC 82 71  1P
EGD 91  0 82 81  1
VFB 93  0  0
FFB 82 81  VFB  1
CGD 92 93  5.87N
R1  92  0  1
D1  91 92  DLIM
DHV 94 93  DR
R2  91 94  1
D2  94  0  DLIM
LE  73 74  7.5N
DLV 94 95  DR 13
RLV 95  0  1
ESD 96 93  POLY(1) 83 81  2  1
MLV 95 96 93 93  SW
.MODEL SW NMOS (LEVEL=3 VTO=0 KP=5)
.MODEL QOUT PNP (IS=43.7F NF=1.2 BF=5.1 CJE=6.56N TF=65N XTB=1.3)
.MODEL MFIN NMOS (LEVEL=3 VMAX=250K THETA=60M ETA=2M VTO=4 KP=.714)
.MODEL DR D (IS=4.37F CJO=419P VJ=1 M=.82)
.MODEL DO D (IS=4.37F BV=600 CJO=685P VJ=1 M=.7)
.MODEL DE D (IS=4.37F BV=14.3 N=2)
.MODEL DLIM D (IS=100N)
.ENDS 
