
*SRC=OM6504SC;OM6504SC;IGBTs;No Diode;500V 30A
*SYM=IGBT
.SUBCKT OM6504SC 71 72 74
*     TERMINALS:  C  G  E
*  500 Volt  30 Amp  500NS  N-Channel IGBT  11-27-1995
Q1  83 81 85     QOUT
M1  81 82 83 83  MFIN L=1U W=1U
DSD 83 81  DO
DBE 85 81  DE
RC  85 71  68.9M
RE  83 73  6.89M
RG  72 82  5
CGE 82 83  3.45N
CGC 82 71  1P
EGD 91  0 82 81  1
VFB 93  0  0
FFB 82 81  VFB  1
CGD 92 93  9.92N
R1  92  0  1
D1  91 92  DLIM
DHV 94 93  DR
R2  91 94  1
D2  94  0  DLIM
LE  73 74  7.5N
DLV 94 95  DR 13
RLV 95  0  1
ESD 96 93  POLY(1) 83 81  25  1
MLV 95 96 93 93  SW
.MODEL SW NMOS (LEVEL=3 VTO=0 KP=5)
.MODEL QOUT PNP (IS=65.6F NF=1.2 BF=5.1 CJE=11.8N TF=500N XTB=1.3)
.MODEL MFIN NMOS (LEVEL=3 VMAX=349K THETA=80M ETA=2.4M VTO=3 KP=.509)
.MODEL DR D (IS=6.56F CJO=709P VJ=1 M=.82)
.MODEL DO D (IS=6.56F BV=500 CJO=1.95N VJ=1 M=.7)
.MODEL DE D (IS=6.56F BV=14.3 N=2)
.MODEL DLIM D (IS=100N)
.ENDS 
