
*SRC=OM6513SC;OM6513SC;IGBTs;w/Diode;1000V 8A
*SYM=IGBT
.SUBCKT OM6513SC 71 72 74
*     TERMINALS:  C  G  E
*  1000 Volt  8 Amp  55NS  N-Channel IGBT  11-27-1995
Q1  83 81 85     QOUT
M1  81 82 83 83  MFIN L=1U W=1U
DSD 83 81  DO
DBE 85 81  DE
RC  85 71  .236
RE  83 73  23.6M
RG  72 82  18.7
CGE 82 83  1.45N
CGC 82 71  1P
EGD 91  0 82 81  1
VFB 93  0  0
FFB 82 81  VFB  1
CGD 92 93  9.92N
R1  92  0  1
D1  91 92  DLIM
DHV 94 93  DR
R2  91 94  1
D2  94  0  DLIM
LE  73 74  7.5N
DLV 94 95  DR 13
RLV 95  0  1
ESD 96 93  POLY(1) 83 81  25  1
MLV 95 96 93 93  SW
DFW 74 71  SKM25D
.MODEL SKM25D D (IS=84.4N RS=42M N=1.75 BV=600 IBV=500U
+ CJO=494P VJ=.75 M=.333 TT=50.4N)
.MODEL SW NMOS (LEVEL=3 VTO=0 KP=5)
.MODEL QOUT PNP (IS=46.4F NF=1.2 BF=5.1 CJE=10.9N TF=55N XTB=1.3)
.MODEL MFIN NMOS (LEVEL=3 VMAX=603K THETA=80M ETA=1.2M VTO=3 KP=.247)
.MODEL DR D (IS=4.64F CJO=709P VJ=1 M=.82)
.MODEL DO D (IS=4.64F BV=1K CJO=978P VJ=1 M=.7)
.MODEL DE D (IS=4.64F BV=14.3 N=2)
.MODEL DLIM D (IS=100N)
.ENDS 
