
*SRC=OM6534SF;OM6534SF;IGBTs;No Diode;1000V 50A
*SYM=IGBT
.SUBCKT OM6534SF 71 72 74
*     TERMINALS:  C  G  E
*  1000 Volt  50 Amp  75NS  N-Channel IGBT  11-27-1995
Q1  83 81 85     QOUT
M1  81 82 83 83  MFIN L=1U W=1U
DSD 83 81  DO
DBE 85 81  DE
RC  85 71  17.8M
RE  83 73  1.78M
RG  72 82  3
CGE 82 83  7.75N
CGC 82 71  1P
EGD 91  0 82 81  1
VFB 93  0  0
FFB 82 81  VFB  1
CGD 92 93  50.4N
R1  92  0  1
D1  91 92  DLIM
DHV 94 93  DR
R2  91 94  1
D2  94  0  DLIM
LE  73 74  7.5N
DLV 94 95  DR 13
RLV 95  0  1
ESD 96 93  POLY(1) 83 81  25  1
MLV 95 96 93 93  SW
DFW 74 71  SKM25D
.MODEL SKM25D D (IS=2.77N RS=80.5M N=1.75 BV=600 IBV=500U
+ CJO=42.4P VJ=.75 M=.333 TT=288N)
.MODEL SW NMOS (LEVEL=3 VTO=0 KP=5)
.MODEL QOUT PNP (IS=109F NF=1.2 BF=5.1 CJE=54.2N TF=75N XTB=1.3)
.MODEL MFIN NMOS (LEVEL=3 VMAX=603K THETA=43.6M ETA=1.2M VTO=5.5 KP=1.95)
.MODEL DR D (IS=10.9F CJO=3.6N VJ=1 M=.82)
.MODEL DO D (IS=10.9F BV=1K CJO=3.81N VJ=1 M=.7)
.MODEL DE D (IS=10.9F BV=14.3 N=2)
.MODEL DLIM D (IS=100N)
.ENDS 
