
*SRC=SKM15GD100D;SKM15GD;IGBTs;w/Diode;1000V 15A
*SYM=IGBT
.SUBCKT SKM15GD  10 20 30
*     TERMINALS:  C  G  E
Q1  30  1 10     QOUT
M1   1  2 30 30  MFIN L=1U W=1U
RG  20  2  10
CGD  4  1  393P
RGD  4  1  10MEG
MGD  4  5  2  2  SW L=1U W=1U
EGD  5  2  2  1  1
DDG  2  6  DCGD
MDG  6  7  1  1  SW L=1U W=1U
EDG  7  1  1  2  1
DDS 30  1  DSUB
VEC  8 10  13.5
DEC  1  8  DBE
DFW  30 10 SKM15D
.MODEL SKM15D D (IS=112N RS=51.7M N=1.95 CJO=618P VJ=.75 M=.333 TT=216N)
.MODEL QOUT PNP (IS=1.84P BF=2.1 RE=18.9M TF=35.8N TR=340N)
.MODEL MFIN NMOS (LEVEL=1 VTO=5.5
+ KP=.623 IS=1.84P RS=5.88M CGSO=3.65M)
.MODEL SW NMOS (LEVEL=1 VTO=0 KP=88.8M)
.MODEL DCGD D (CJO=393P VJ=.41 M=.5)
.MODEL DSUB D (IS=1.84P BV=999 IBV=1M CJO=200P VJ=.8 M=.4 TT=288P)
.MODEL DBE  D (IS=1.84P)
*Semikron 1000 Volt  15 Amp  N-Channel IGBT  07-27-1991
.ENDS
