
*SRC=SKM25GB;SKM25GB;IGBTs;w/Diode;1000V 25A
*SYM=IGBT
.SUBCKT SKM25GB  10 20 30
*     TERMINALS:  C  G  E
Q1  30  1 10     QOUT
M1   1  2 30 30  MFIN L=1U W=1U
RG  20  2  6
CGD  4  1  787P
RGD  4  1  10MEG
MGD  4  5  2  2  SW L=1U W=1U
EGD  5  2  2  1  1
DDG  2  6  DCGD
MDG  6  7  1  1  SW L=1U W=1U
EDG  7  1  1  2  1
DDS 30  1  DSUB
VEC  8 10  13.5
DEC  1  8  DBE
DFW  30 10 SKM25D
.MODEL SKM25D D (IS=484N RS=17.7M N=1.95 CJO=2.05N VJ=.75 M=.333 TT=288N)
.MODEL QOUT PNP (IS=3.07P BF=2.1 RE=18.9M TF=44.7N TR=510N)
.MODEL MFIN NMOS (LEVEL=1 VTO=5.5
+ KP=1.41 IS=3.07P RS=5.88M CGSO=7.9M RD=.2)
.MODEL SW NMOS (LEVEL=1 VTO=0 KP=.1)
.MODEL DCGD D (CJO=787P VJ=.41 M=.5)
.MODEL DSUB D (IS=3.07P BV=999 IBV=1M CJO=401P VJ=.8 M=.4 TT=432P)
.MODEL DBE  D (IS=3.07P)
*Semikron 1000 Volt  25 Amp  N-Channel IGBT  07-27-1991
.ENDS
