
*SRC=SKM50GB;SKM50GB;IGBTs;w/Diode;1000V 50A
*SYM=IGBT
.SUBCKT SKM50GB  10 20 30
*     TERMINALS:  C  G  E
Q1  30  1 10     QOUT
M1   1  2 30 30  MFIN L=1U W=1U
RG  20  2  3
CGD  4  1  1.57N
RGD  4  1  10MEG
MGD  4  5  2  2  SW L=1U W=1U
EGD  5  2  2  1  1
DDG  2  6  DCGD
MDG  6  7  1  1  SW L=1U W=1U
EDG  7  1  1  2  1
DDS 30  1  DSUB
VEC  8 10  13.5
DEC  1  8  DBE
DFW  30 10 SKM50D
.MODEL SKM50D D (IS=623N RS=19.9M N=1.95 CJO=2.05N VJ=.75 M=.333 TT=360N)
.MODEL QOUT PNP (IS=6.14P BF=2.1 RE=5.69M TF=53.7N TR=680N)
.MODEL MFIN NMOS (LEVEL=1 VTO=5.5
+ KP=2.56 IS=6.14P RS=1.76M CGSO=15.8M RD=.1)
.MODEL SW NMOS (LEVEL=1 VTO=0 KP=.123)
.MODEL DCGD D (CJO=1.57N VJ=.41 M=.5)
.MODEL DSUB D (IS=6.14P BV=999 IBV=1M CJO=802P VJ=.8 M=.4 TT=576P)
.MODEL DBE  D (IS=6.14P)
*Semikron 1000 Volt  50 Amp  N-Channel IGBT  07-27-1991
.ENDS
