
*SRC=HFA08TB60;A08TB60;Diodes;Rectifier >5A;600V 8A, Soft Rec.
*SYM=SOFTD
*HELP issyntax.hlp "Soft Recovery Diodes"
.SUBCKT A08TB60 11 9 
* {IS1=2.9U TM=23N TAU=82.8N RMO=1 CAP=100P VTA=.039 ISE=.15P}
*
*..............|  ANODE
*................|  CATHODE
*
* FOLLOWING COMPONENTS INCLUDE FOR SPACE CHARGE CAPACITANCE.
LS 11 1 8N
DMODEL 1 2 DCAP
.MODEL DCAP D (IS=1E-40 RS=0 TT=0 CJO=100.000P)
BD 1 2 I= (V(5,6) / 27.000N) + (150.00F * (EXPL(((V(1) - V(2)) / 39.000M),50) - 1))
* FOLLOWING COMPONENTS MODEL REVERSE RECOVERY.
BE 5 0 V=2.9000U * 82.800N * (EXPL(((V(1) - V(2)) / (2*39.000M)),50) - 1)
* SET EE=QE
RE 5 0 1E6
BM 6 0 V=(V(5)/27.000N-I(VS1))*(27.000N*82.800N/(27.000N+82.800N))
* SET EM=QM
RM 6 0 1E6
BDM 7 0 V=V(6)
* SET EDM=QM
VS1 7 8
* SET I(VSENSE1)=DQM/DT
CDM 8 0 1
RDM 8 0 1E9
*
* MODEL HIGH CURRENT EFFECTS AND FORWARD RECOVERY.
RS 2 3 39M
BMO 3 4 V=2*39.000M*1.0000 *27.000N*I(VS2)/((V(6)*1.0000 )+(39.000M*27.000N))
* FOR VM
VS2 4 9
.ENDS
