
*SRC=HFA25TA60;A25TA60;Diodes;Rectifier >5A;600V 25A, Soft Rec.
*SYM=SOFTD
*HELP issyntax.hlp "Soft Recovery Diodes"
.SUBCKT A25TA60 11 9 
* {IS1=20.50U TM=30.7N TAU=265N RMO=1 CAP=1000P VTA=.056 ISE=1.30N}
*
*..............|  ANODE
*................|  CATHODE
*
* FOLLOWING COMPONENTS INCLUDE FOR SPACE CHARGE CAPACITANCE.
LS 11 1 8N
DMODEL 1 2 DCAP
.MODEL DCAP D (IS=1E-40 RS=0 TT=0 CJO=1.0000N)
BD 1 2 I= (V(5,6) / 30.700N) + (1.3000N * (EXPL(((V(1) - V(2)) / 56.000M),50) - 1))
* FOLLOWING COMPONENTS MODEL REVERSE RECOVERY.
BE 5 0 V=20.500U * 265.00N * (EXPL(((V(1) - V(2)) / (2*56.000M)),50) - 1)
* SET EE=QE
RE 5 0 1E6
BM 6 0 V=(V(5)/30.700N-I(VS1))*(30.700N*265.00N/(30.700N+265.00N))
* SET EM=QM
RM 6 0 1E6
BDM 7 0 V=V(6)
* SET EDM=QM
VS1 7 8
* SET I(VSENSE1)=DQM/DT
CDM 8 0 1
RDM 8 0 1E9
*
* MODEL HIGH CURRENT EFFECTS AND FORWARD RECOVERY.
RS 2 3 9.2M
BMO 3 4 V=2*56.000M*1.0000 *30.700N*I(VS2)/((V(6)*1.0000 )+(56.000M*30.700N))
* FOR VM
VS2 4 9
.ENDS
