
*SRC=HFA30TA60C;A30TA60C;Diodes;Rectifier >5A;600V 30A, Soft Rec.
*SYM=SOFTD
*HELP issyntax.hlp "Soft Recovery Diodes"
.SUBCKT A30TA60C 11 9 
* {IS1=10.9U TM=19.89N TAU=425N RMO=1 CAP=110P VTA=.055 ISE=1.5N}
*
*..............|  ANODE
*................|  CATHODE
*
* FOLLOWING COMPONENTS INCLUDE FOR SPACE CHARGE CAPACITANCE.
LS 11 1 8N
DMODEL 1 2 DCAP
.MODEL DCAP D (IS=1E-40 RS=0 TT=0 CJO=110.00P)
BD 1 2 I= (V(5,6) / 19.890N) + (1.5000N * (EXPL(((V(1) - V(2)) / 55.000M),50) - 1))
* FOLLOWING COMPONENTS MODEL REVERSE RECOVERY.
BE 5 0 V=10.900U * 425.00N * (EXPL(((V(1) - V(2)) / (2*55.000M)),50) - 1)
* SET EE=QE
RE 5 0 1E6
BM 6 0 V=(V(5)/19.890N-I(VS1))*(19.890N*425.00N/(19.890N+425.00N))
* SET EM=QM
RM 6 0 1E6
BDM 7 0 V=V(6)
* SET EDM=QM
VS1 7 8
* SET I(VSENSE1)=DQM/DT
CDM 8 0 1
RDM 8 0 1E9
*
* MODEL HIGH CURRENT EFFECTS AND FORWARD RECOVERY.
RS 2 3 19M
BMO 3 4 V=2*55.000M*1.0000 *19.890N*I(VS2)/((V(6)*1.0000 )+(55.000M*19.890N))
* FOR VM
VS2 4 9
.ENDS
