
*SRC=IR10CTQ150;I10C150;Diodes;Schottky;150V 10A
*SYM=PSCHOT
*HELP issyntax.hlp "Power Schottky Rectifiers"
.SUBCKT I10C150 1 2
*Connections       A C
LPKG 1 3 8N
RS 3 4 13MOHM
RB 4 5 105MOHM
RFR 3 6 1K
CFR 6 5 10PF
MFR 4 6 5 5 BULK
DIO 5 7 DMOD1
VDIO 7 2
BDIO 5 2 I= I(VDIO) * EXP (.013 * V(2,5))
DCAP 5 2 DMOD2
CPAR 5 2 23PF
.MODEL DMOD1 D(IS=50NA N=.9 XTI=2 EG=.69)
.MODEL DMOD2 D(CJO=420P M=.6 VJ=.7)
.MODEL BULK NMOS (VTO=.19 KP=320)
.ENDS
