
*SRC=MBR2035;MBR2035;Diodes;Schottky;35V 20A
*SYM=PSCHOT
*HELP issyntax.hlp "Power Schottky Rectifiers"
.SUBCKT MBR2035 1 2
*Connections    A C
LPKG 1 3 8N
RS 3 4 4.5M
RB 4 5 45M
RFR 3 6 1K
CFR 6 5 10P
MFR 4 6 5 5 BULK
DIO 5 7 DMOD1
VDIO 7 2 
BDIO 5 2 I = I(VDIO)*EXP(50M*V(2,5))
DCAP 5 2 DMOD2
CPAR 5 2 23P
.MODEL DMOD1 D(IS=5.04U N=1 XTI=1.5 EG=.55 )
.MODEL DMOD2 D(CJO=1.02N VJ=.75 M=.333)
.MODEL BULK NMOS(VTO=.19 KP=320)
.ENDS
