
*SRC=BPW21;BPW21;Diodes;Photo;PIN, 340MA/W
*SYM=BPW34
.SUBCKT BPW21   4             1        3
*               INPUT Pwr(W)  CATHODE  ANODE
D2  6  1  BPW21
G2  1  6  POLY(2)  1  6  4  0  0  400P  340M
* G2  1  6  POLY(2)  1  6  4  0  0  IDARK  SENS
* Dark current as a function of VR: IDARK*V(1,6) 
* and Spectral Photosensitivity (A/W): SENS at 550NM
V4  6  3 ;  Photodiode Current
.MODEL BPW21 D (IS=2.47N RS=42M N=2.63 BV=10 IBV=10U
+ CJO=580P VJ=.75 M=.333 TT=2.16U)
*  10 Volt Si Photo Diode  08-23-1994
.ENDS
