
*SRC=BPW32;BPW32;Diodes;Photo;PIN, 500MA/W
*SYM=BPW34
.SUBCKT BPW32   4             1        3
*               INPUT Pwr(W)  CATHODE  ANODE
D2  6  1  BPW32
G2  1  6  POLY(2)  1  6  4  0  0  4P  500M
* G2  1  6  POLY(2)  1  6  4  0  0  IDARK  SENS
* Dark current as a function of VR: IDARK*V(1,6) 
* and Spectral Photosensitivity (A/W): SENS at 850NM
V4  6  3 ;  Photodiode Current
.MODEL BPW32 D (IS=1.94N RS=42M N=2.85 BV=7 IBV=10U
+ CJO=100P VJ=.75 M=.333 TT=1.87U)
*  7 Volt  Si Photo Diode  08-23-1994
.ENDS
