
*SRC=BPW33;BPW33;Diodes;Photo;PIN, 590MA/W
*SYM=BPW34
.SUBCKT BPW33   4             1        3
*               INPUT Pwr(W)  CATHODE  ANODE
D2  6  1  BPW33
G2  1  6  POLY(2)  1  6  4  0  0   15P  590M
* G2  1  6  POLY(2)  1  6  4  0  0  IDARK  SENS
* Dark current as a function of VR: IDARK*V(1,6) 
* and Spectral Photosensitivity (A/W): SENS at 850NM
V4  6  3 ;  Photodiode Current
.MODEL BPW33 D (IS=2.46N RS=42M N=2.85 BV=7 IBV=10U
+ CJO=630P VJ=.75 M=.333 TT=2.16U)
*  7 Volt  Si Photo Diode  08-23-1994
.ENDS
