
*SRC=BPW34B;BPW34B;Diodes;Photo;PIN, 200MA/W
*SYM=BPW34
.SUBCKT BPW34B  4             1        3
*               INPUT Pwr(W)  CATHODE  ANODE
D2  6  1  BPW34B
G2  1  6  POLY(2)  1  6  4  0  0  200P  200M
* G2  1  6  POLY(2)  1  6  4  0  0  IDARK  SENS
* Dark current as a function of VR: IDARK*V(1,6) 
* and Spectral Photosensitivity (A/W): SENS at 400NM
V4  6  3 ;  Photodiode Current
.MODEL BPW34B D (IS=2.46N RS=42M N=2.85 BV=32 IBV=10U
+ CJO=72P VJ=.75 M=.333 TT=36N)
*  32 Volt  Si Photo Diode  08-23-1994
.ENDS
