
*SRC=BPX61;BPX61;Diodes;Photo;PIN, 620MA/W
*SYM=BPW34
.SUBCKT BPX61   4             1        3
*               INPUT Pwr(W)  CATHODE  ANODE
D2  6  1  BPX61
G2  1  6  POLY(2)  1  6  4  0  0  200P  620M
* G2  1  6  POLY(2)  1  6  4  0  0  IDARK  SENS
* Dark current as a function of VR: IDARK*V(1,6) 
* and Spectral Photosensitivity (A/W): SENS at 850NM
V4  6  3 ;  Photodiode Current
.MODEL BPX61 D (IS=2.46N RS=42M N=2.85 BV=32 IBV=10U
+ CJO=72P VJ=.75 M=.333 TT=30N)
*  32 Volt Si Photo Diode  08-23-1994
.ENDS
