
*SRC=BPX65;BPX65;Diodes;Photo;PIN, 550MA/W
*SYM=BPW34
.SUBCKT BPX65   4             1        3
*               INPUT Pwr(W)  CATHODE  ANODE
D2  6  1  BPX65
G2  1  6  POLY(2)  1  6  4  0  0  400P  550M
* G2  1  6  POLY(2)  1  6  4  0  0  IDARK  SENS
* Dark current as a function of VR: IDARK*V(1,6) 
* and Spectral Photosensitivity (A/W): SENS at 850NM
V4  6  3 ;  Photodiode Current
.MODEL BPX65 D (IS=2.46N RS=42M N=2.85 BV=50 IBV=10U
+ CJO=11P VJ=.75 M=.333 TT=17.2N)
*  50 Volt Si Photo Diode  08-23-1994
.ENDS
