
*SRC=BPX60;BPX60;Diodes;Photo;PIN, 200MA/W
*SYM=BPW34
.SUBCKT BPX60   4             1        3
*               INPUT Pwr(W)  CATHODE  ANODE
D2  6  1  BPX60
G2  1  6  POLY(2)  1  6  4  0  0  630P  200M
* G2  1  6  POLY(2)  1  6  4  0  0  IDARK  SENS
* Dark current as a function of VR: IDARK*V(1,6) 
* and Spectral Photosensitivity (A/W): SENS at 400NM
V4  6  3 ;  Photodiode Current
.MODEL BPX60 D (IS=2.46N RS=42M N=2.85 BV=32 IBV=10U
+ CJO=580P VJ=.75 M=.333 TT=4.32U)
*  32 Volt Si Photo Diode  08-23-1994
.ENDS
