
*SRC=BPY12;BPY12;Diodes;Photo;PIN, 600MA/W
*SYM=BPW34
.SUBCKT BPY12   4             1        3
*               INPUT Pwr(W)  CATHODE  ANODE
D2  6  1  BPY12
G2  1  6  POLY(2)  1  6  4  0  0  550P  600M
* G2  1  6  POLY(2)  1  6  4  0  0  IDARK  SENS
* Dark current as a function of VR: IDARK*V(1,6) 
* and Spectral Photosensitivity (A/W): SENS at 850NM
V4  6  3 ;  Photodiode Current
.MODEL BPY12 D (IS=2.46N RS=42M N=2.85 BV=20 IBV=10U
+ CJO=140P VJ=.75 M=.333 TT=36N)
*  20 Volt Si Photo Diode  08-23-1994
.ENDS
