***
*SRC=GUNN;GUNN;Diodes;Gunn;
*SYM=GUNN
.SUBCKT GUNN 1  2
*
* VP=3V IP=350MA VV=6.5V IV=50MA VF=9V RB=0.5OHM CJ=0.1P
*
* L1 1 100 .2NH ; Optional Lead Inductance. If used, set Node 1 in R1 to 100
R1 1 3 .5
D1 3 2 DIODE
J1 4 2 3 NKANALJFET
J2 4 3 2 PKANALJFET
.MODEL NKANALJFET NJF (VTO=-4V BETA=.07 CGS=.05P)
.MODEL PKANALJFET PJF (VTO=-4V BETA=.07 CGS=.05P)
.MODEL DIODE D (RS=6 N=9)
.ENDS 
