
*SRC=MRD510;MRD510;Diodes;Photo;PIN, 1.5MA/W
*SYM=BPW34
.SUBCKT MRD510  4  1  3
*   INPUT Pwr(W) CATHODE  ANODE
D2  6  1  MRD510
G2  1  6  POLY(2)  1  6  4  0  0  3P  1.5M
* G2  1  6  POLY(2)  1  6  4  0  0  IDARK  SENS
* Dark current as a function of VR: IDARK*V(1,6) 
* and Spectral Photosensitivity (A/W): SENS at .8uM
V4  6  3 ;  Photodiode Current
.MODEL MRD510 D (IS=2.55N RS=42M N=1.75 BV=200 IBV=10U
+ CJO=5.3P VJ=.75 M=.333 TT=4.32N)
* Si Photo Diode  08-11-1994
.ENDS
