
*SRC=MRD721;MRD721;Diodes;Photo;PIN, 5MA/W
*SYM=BPW34
.SUBCKT MRD721  4             1        3
*               INPUT Pwr(W)  CATHODE  ANODE
D2  6  1  MRD721
G2  1  6  POLY(2)  1  6  4  0  0  3P  5M
* G2  1  6  POLY(2)  1  6  4  0  0  IDARK  SENS
* Dark current as a function of VR: IDARK*V(1,6) 
* and Spectral Photosensitivity (A/W): SENS at .8uM
V4  6  3 ;  Photodiode Current
.MODEL MRD721 D (IS=2.55N RS=42M N=1.75 BV=100 IBV=10U
+ CJO=4.97P VJ=.75 M=.333 TT=4.32N)
* Si Photo Diode  08-11-1994
.ENDS
