
*SRC=MRD821;MRD821;Diodes;Photo;PIN, 50MA/W
*SYM=BPW34
.SUBCKT MRD821  4              1        3
*               INPUT Pwr(W)   CATHODE  ANODE
D2  6  1  MRD821
G2  1  6  POLY(2)  1  6  4  0  0  .4N  50M
* G2  1  6  POLY(2)  1  6  4  0  0  IDARK  SENS
* Dark current as a function of VR: IDARK*V(1,6) 
* and Spectral Photosensitivity (A/W): SENS at 940NM
V4  6  3 ;  Photodiode Current
.MODEL MRD821 D (IS=234P RS=42M N=1.75 BV=35 IBV=10U
+ CJO=175P VJ=.75 M=.333 TT=4.32U)
* Si Photo Diode  08-11-1994
.ENDS
