
*SRC=1N3858;TN3858;Diodes;Tunnel;
*SYM=TUNDIODE
.SUBCKT TN3858 1 2
R1 1 3 2.5
I0 3 2 1.2M
D1 3 2 DIODE
J1 4 2 3 NCHANNELJFET
J2 4 3 2 PCHANNELJFET
.MODEL NCHANNELJFET NJF(VTO=-.115V BETA=1.9 CGS=4P)
.MODEL PCHANNELJFET PJF(VTO=-.115V BETA=1.9 CGS=4P)
.MODEL DIODE D (RS=7 N=.6)
.ENDS 
