
*SRC=APT100G200EFN;APT100G2;IGBTs;No Diode;1000V 200A
*SYM=IGBT
.SUBCKT APT100G2 10 20 30
*     TERMINALS:  C  G  E
Q1  30  1 10     QOUT
M1   1  2 30 30  MFIN L=1U W=1U
RG  20  2  .75
CGD  4  1  10.2N
RGD  4  1  10MEG
MGD  4  5  2  2  SW L=1U W=1U
EGD  5  2  2  1  1
DDG  2  6  DCGD
MDG  6  7  1  1  SW L=1U W=1U
EDG  7  1  1  2  1
DDS 30  1  DSUB
VEC  8 10  23.5
DEC  1  8  DBE
.MODEL QOUT PNP (IS=33.3P BF=2.1 RE=1.44M TF=17.9N TR=680N)
.MODEL MFIN NMOS (LEVEL=1 VTO=4
+ KP=3.95 IS=33.3P RS=447U CGSO=17.7M)
.MODEL SW NMOS (LEVEL=1 VTO=0 KP=.197)
.MODEL DCGD D (CJO=10.2N VJ=.41 M=.5)
.MODEL DSUB D (IS=33.3P BV=999 IBV=1M CJO=5.21N VJ=.8 M=.4 TT=576P)
.MODEL DBE  D (IS=33.3P)
*  1000 Volt  200 Amp  N-Channel IGBT  07-27-1991
.ENDS
