
*SRC=I6MBI20L;I6MBI20L;IGBTs;w/Diode;600V 20A 37.5NS 
*SYM=IGBT
.SUBCKT I6MBI20L 71 72 74
*     TERMINALS:  C  G  E
*  600 Volt  20 Amp  37.5NS  N-Channel IGBT  11-27-1993
Q1  83 81 85     QOUT
M1  81 82 83 83  MFIN L=1U W=1U
DSD 83 81  DO
DBE 85 81  DE
RC  85 71  52.4M
RE  83 73  5.24M
RG  72 82  13.2
CGE 82 83  1.89N
CGC 82 71  1P
EGD 91  0 82 81  1
VFB 93  0  0
FFB 82 81  VFB  1
CGD 92 93  801P
R1  92  0  1
D1  91 92  DLIM
DHV 94 93  DR
R2  91 94  1
D2  94  0  DLIM
LE  73 74  7.5N
DLV 94 95  DR 13
RLV 95  0  1
ESD 96 93  POLY(1) 83 81  19  1
MLV 95 96 93 93  SW
DFW 74 71 DMBI20
.MODEL SW NMOS (LEVEL=3 VTO=0 KP=5)
.MODEL QOUT PNP (IS=188F NF=1.2 BF=5.1 CJE=2.13N TF=37.5N XTB=1.3)
.MODEL MFIN NMOS (LEVEL=3 VMAX=400K THETA=53.3M ETA=2M VTO=4.5 KP=1.07)
.MODEL DR D (IS=18.8F CJO=57.2P VJ=1 M=.82)
.MODEL DO D (IS=18.8F BV=600 CJO=1.33N VJ=1 M=.7)
.MODEL DE D (IS=18.8F BV=14.3 N=2)
.MODEL DLIM D (IS=100N)
.MODEL DMBI20 D (IS=2.3U RS=88.8M N=1.75 BV=600 IBV=1M
+ CJO=823P VJ=.75 M=.333 TT=432N)
.ENDS 
