
*SRC=I6MBI15L;I6MBI15L;IGBTs;w/Diode;600V 15A 42.5NS 
*SYM=IGBT
.SUBCKT I6MBI15L 71 72 74
*     TERMINALS:  C  G  E
*  600 Volt  15 Amp  42.5NS  N-Channel IGBT  11-27-1993
Q1  83 81 85     QOUT
M1  81 82 83 83  MFIN L=1U W=1U
DSD 83 81  DO
DBE 85 81  DE
RC  85 71  69.9M
RE  83 73  6.99M
RG  72 82  30.8
CGE 82 83  1.39N
CGC 82 71  1P
EGD 91  0 82 81  1
VFB 93  0  0
FFB 82 81  VFB  1
CGD 92 93  590P
R1  92  0  1
D1  91 92  DLIM
DHV 94 93  DR
R2  91 94  1
D2  94  0  DLIM
LE  73 74  7.5N
DLV 94 95  DR 13
RLV 95  0  1
ESD 96 93  POLY(1) 83 81  19  1
MLV 95 96 93 93  SW
DFW 74 71 DMBI15
.MODEL SW NMOS (LEVEL=3 VTO=0 KP=5)
.MODEL QOUT PNP (IS=141F NF=1.2 BF=5.1 CJE=1.57N TF=42.5N XTB=1.3)
.MODEL MFIN NMOS (LEVEL=3 VMAX=400K THETA=53.3M ETA=2M VTO=4.5 KP=.809)
.MODEL DR D (IS=14.1F CJO=42.1P VJ=1 M=.82)
.MODEL DO D (IS=14.1F BV=600 CJO=983P VJ=1 M=.7)
.MODEL DE D (IS=14.1F BV=14.3 N=2)
.MODEL DLIM D (IS=100N)
.MODEL DMBI15 D (IS=1.72U RS=.118 N=1.75 BV=600 IBV=1M
+ CJO=618P VJ=.75 M=.333 TT=432N)
.ENDS 
