
*SRC=I6MBI30L;I6MBI30L;IGBTs;w/Diode;600V 30A 72.5NS
*SYM=IGBT
.SUBCKT I6MBI30L 71 72 74
*     TERMINALS:  C  G  E
*  600 Volt  30 Amp  72.5NS  N-Channel IGBT  11-27-1993
Q1  83 81 85     QOUT
M1  81 82 83 83  MFIN L=1U W=1U
DSD 83 81  DO
DBE 85 81  DE
RC  85 71  34.9M
RE  83 73  3.49M
RG  72 82  66.1
CGE 82 83  2.83N
CGC 82 71  1P
EGD 91  0 82 81  1
VFB 93  0  0
FFB 82 81  VFB  1
CGD 92 93  1.2N
R1  92  0  1
D1  91 92  DLIM
DHV 94 93  DR
R2  91 94  1
D2  94  0  DLIM
LE  73 74  7.5N
DLV 94 95  DR 13
RLV 95  0  1
ESD 96 93  POLY(1) 83 81  19  1
MLV 95 96 93 93  SW
DFW 74 71 DMBI30
.MODEL SW NMOS (LEVEL=3 VTO=0 KP=5)
.MODEL QOUT PNP (IS=283F NF=1.2 BF=5.1 CJE=3.21N TF=72.5N XTB=1.3)
.MODEL MFIN NMOS (LEVEL=3 VMAX=400K THETA=53.3M ETA=2M VTO=4.5 KP=1.61)
.MODEL DR D (IS=28.3F CJO=85.8P VJ=1 M=.82)
.MODEL DO D (IS=28.3F BV=600 CJO=2N VJ=1 M=.7)
.MODEL DE D (IS=28.3F BV=14.3 N=2)
.MODEL DLIM D (IS=100N)
.MODEL DMBI30 D (IS=3.45U RS=59.2M N=1.75 BV=600 IBV=1M
+ CJO=1.23N VJ=.75 M=.333 TT=432N)
.ENDS 
