
*SRC=ID221KA2;ID221KA2;IGBTs;w/Diode;1000V 25A
*SYM=IGBT
.SUBCKT ID221KA2 10 20 30
*     TERMINALS:  C  G  E
Q1  30  1 10     QOUT
M1   1  2 30 30  MFIN L=1U W=1U
RG  20  2  6
CGD  4  1  504P
RGD  4  1  10MEG
MGD  4  5  2  2  SW L=1U W=1U
EGD  5  2  2  1  1
DDG  2  6  DCGD
MDG  6  7  1  1  SW L=1U W=1U
EDG  7  1  1  2  1
DDS 30  1  DSUB
VEC  8 10  13.5
DEC  1  8  DBE
DFW 30 10 DKA2
.MODEL DKA2 D (IS=633N RS=47.8M N=2.46
+ CJO=1.02N VJ=.75 M=.333 TT=216N)
*  600 Volt  25 Amp  .15 us  Si Diode  08-19-1991
.MODEL QOUT PNP (IS=4.16P BF=3.3 RE=14.8M TF=107N TR=850N)
.MODEL MFIN NMOS (LEVEL=1 VTO=4
+ KP=.356 IS=4.16P RS=6.37M CGSO=4.4M)
.MODEL SW NMOS (LEVEL=1 VTO=0 KP=17.8M)
.MODEL DCGD D (CJO=504P VJ=.41 M=.5)
.MODEL DSUB D (IS=4.16P BV=999 IBV=1M CJO=375P VJ=.8 M=.4 TT=720P)
.MODEL DBE  D (IS=4.16P)
*  1000 Volt  25 Amp  N-Channel IGBT  08-19-1991
.ENDS
