
*SRC=IGT6E11;IGT6E11;IGBTs;No Diode;500V 18A
*SYM=IGBT
.SUBCKT IGT6E11  10 20 30
*     TERMINALS:  C  G  E
Q1  30  1 10     QOUT
M1   1  2 30 30  MFIN L=1U W=1U
RG  20  2  8.33
CGD  4  1  78.7P
RGD  4  1  10MEG
MGD  4  5  2  2  SW L=1U W=1U
EGD  5  2  2  1  1
DDG  2  6  DCGD
MDG  6  7  1  1  SW L=1U W=1U
EDG  7  1  1  2  1
DDS 30  1  DSUB
VEC  8 10  13.5
DEC  1  8  DBE
.MODEL QOUT PNP (IS=3P BF=13.6 RE=28.8M TF=17.9N TR=680N)
.MODEL MFIN NMOS (LEVEL=3 VMAX=20.8MEG THETA=52.5M VTO=3.5
+ KP=124.4M IS=3P RS=42.1M CGSO=1.04M)
.MODEL SW NMOS (LEVEL=3 VTO=0 KP=945M)
.MODEL DCGD D (CJO=78.7P VJ=.41 M=.5)
.MODEL DSUB D (IS=3P BV=499 IBV=1M CJO=53.2P VJ=.8 M=.4 TT=576P)
.MODEL DBE  D (IS=3P)
*  500 Volt  18 Amp  N-Channel IGBT  07-27-1991
.ENDS
