
*SRC=IGT8E20;IGT8E20;IGBTs;No Diode;500V 32A
*SYM=IGBT
.SUBCKT IGT8E20  10 20 30
*     TERMINALS:  C  G  E
Q1  30  1 10     QOUT
M1   1  2 30 30  MFIN L=1U W=1U
RG  20  2  4.68
CGD  4  1  78.7P
RGD  4  1  10MEG
MGD  4  5  2  2  SW L=1U W=1U
EGD  5  2  2  1  1
DDG  2  6  DCGD
MDG  6  7  1  1  SW L=1U W=1U
EDG  7  1  1  2  1
DDS 30  1  DSUB
VEC  8 10  13.5
DEC  1  8  DBE
.MODEL QOUT PNP (IS=5.33P BF=29.1 RE=12.7M TF=35.8N TR=1.1U)
.MODEL MFIN NMOS (LEVEL=3 VMAX=20.8MEG THETA=52.5M VTO=3.5
+ KP=133.1M IS=5.33P RS=38.4M CGSO=2.29M)
.MODEL SW NMOS (LEVEL=3 VTO=0 KP=1.73)
.MODEL DCGD D (CJO=78.7P VJ=.41 M=.5)
.MODEL DSUB D (IS=5.33P BV=499 IBV=1M CJO=53.2P VJ=.8 M=.4 TT=936P)
.MODEL DBE  D (IS=5.33P)
*  500 Volt  32 Amp  N-Channel IGBT  07-27-1991
.ENDS
