
*SRC=HGTP12N40C1D;IGTH124C;IGBTs;No Diode;400V 12A
*SYM=IGBT
.SUBCKT IGTH124C 71 72 74
*     TERMINALS:  C  G  E
*  400 Volt  12 Amp  67NS  N-Channel IGBT  06-18-1992
*  Harris part number HGTP12N40C1D
Q1  83 81 85     QOUT ;OFF
M1  81 82 83 83  MFIN L=1U W=1U
DSD 83 81  DO
DBE 85 81  DE
RC  85 71  58.8M
RE  83 73  5.88M
RG  72 82  28.8
CGE 82 83  680P
CGC 82 71  1P
EGD 91  0 82 81  1
VFB 93  0  0
FFB 82 81  VFB  1
CGD 92 93  4.44N
R1  92  0  1
D1  91 92  DLIM
DHV 94 93  DR
R2  91 94  1
D2  94  0  DLIM
DLV 94 95  DR 13
RLV 95  0  1
ESD 96 93  POLY(1) 83 81  19  1
MLV 95 96 93 93  SW
LE  73 74  7.5N
.MODEL SW NMOS (LEVEL=3 VTO=0 KP=5)
.MODEL QOUT PNP (IS=54.5F NF=1.2 BF=5.1 CJE=5.33N TF=60N XTB=1.3)
.MODEL MFIN NMOS (LEVEL=3 VMAX=298K THETA=60M ETA=3.01M VTO=3.7 KP=1.296)
.MODEL DR D (IS=.545F CJO=317P VJ=1 M=.82)
.MODEL DO D (IS=.545F BV=400 CJO=885P VJ=1 M=.7)
.MODEL DE D (IS=.545F BV=14.3 N=2)
.MODEL DLIM D (IS=100U)
.ENDS 
