
*SRC=IRGBC30U;IRGBC30U;IGBTs;No Diode;600V 23A
*SYM=IGBT
.SUBCKT IRGBC30U 10 20 30
*     TERMINALS:  C  G  E
Q1  30  1 10     QOUT
M1   1  2 30 30  MFIN L=1U W=1U
RG  20  2  6.52
CGD  4  1  94.7P
RGD  4  1  10MEG
MGD  4  5  2  2  SW L=1U W=1U
EGD  5  2  2  1  1
DDG  2  6  DCGD
MDG  6  7  1  1  SW L=1U W=1U
EDG  7  1  1  2  1
DDS 30  1  DSUB
VEC  8 10  13.5
DEC  1  8  DBE
.MODEL QOUT PNP (IS=3.66P BF=2.91 RE=13M TF=2.68N TR=272N)
.MODEL MFIN NMOS (LEVEL=1 VTO=4.2
+ KP=.586 IS=3.66P RS=5.1M CGSO=649U)
.MODEL SW NMOS (LEVEL=1 VTO=0 KP=268.2M)
.MODEL DCGD D (CJO=94.7P VJ=.41 M=.5)
.MODEL DSUB D (IS=3.66P BV=599 IBV=1M CJO=62.8P VJ=.8 M=.4 TT=230P)
.MODEL DBE  D (IS=3.66P)
*  600 Volt  23 Amp  N-Channel IGBT  08-19-1991
.ENDS
