
*SRC=IRGBC20U;IRGBC20U;IGBTs;No Diode;600V 13A
*SYM=IGBT
.SUBCKT IRGBC20U 10 20 30
*     TERMINALS:  C  G  E
Q1  30  1 10     QOUT
M1   1  2 30 30  MFIN L=1U W=1U
RG  20  2  11.5
CGD  4  1  51.9P
RGD  4  1  10MEG
MGD  4  5  2  2  SW L=1U W=1U
EGD  5  2  2  1  1
DDG  2  6  DCGD
MDG  6  7  1  1  SW L=1U W=1U
EDG  7  1  1  2  1
DDS 30  1  DSUB
VEC  8 10  13.5
DEC  1  8  DBE
.MODEL QOUT PNP (IS=2.06P BF=3.65 RE=24.3M TF=2.14N TR=254N)
.MODEL MFIN NMOS (LEVEL=1 VTO=4.2
+ KP=.171 IS=2.06P RS=11.3M CGSO=325U)
.MODEL SW NMOS (LEVEL=1 VTO=0 KP=8.55M)
.MODEL DCGD D (CJO=51.9P VJ=.41 M=.5)
.MODEL DSUB D (IS=2.06P BV=599 IBV=1M CJO=34.4P VJ=.8 M=.4 TT=215P)
.MODEL DBE  D (IS=2.06P)
*  600 Volt  13 Amp  N-Channel IGBT  07-27-1991
.ENDS
