
*SRC=IRGBC20F;IRGBC20F;IGBTs;w/Diode;600V 16A
*SYM=IGBT
.SUBCKT IRGBC20F 10 20 30
*     TERMINALS:  C  G  E
Q1  30  1 10     QOUT
M1   1  2 30 30  MFIN L=1U W=1U
RG  20  2  9.37
CGD  4  1  50.8P
RGD  4  1  10MEG
MGD  4  5  2  2  SW L=1U W=1U
EGD  5  2  2  1  1
DDG  2  6  DCGD
MDG  6  7  1  1  SW L=1U W=1U
EDG  7  1  1  2  1
DDS 30  1  DSUB
VEC  8 10  28.5
DEC  1  8  DBE
.MODEL QOUT PNP (IS=2.54P BF=3.59 RE=17.8M TF=3.22N TR=357N)
.MODEL MFIN NMOS (LEVEL=1 VTO=4.2
+ KP=.189 IS=2.54P RS=8.18M CGSO=334U)
.MODEL SW NMOS (LEVEL=1 VTO=0 KP=21.4M)
.MODEL DCGD D (CJO=50.8P VJ=.41 M=.5)
.MODEL DSUB D (IS=2.54P BV=599 IBV=1M CJO=33.7P VJ=.8 M=.4 TT=302P)
.MODEL DBE  D (IS=2.54P)
*  600 Volt  16 Amp  N-Channel IGBT  08-19-1991
.ENDS
