
*SRC=IRGPC50U;IRGPC50U;IGBTs;No Diode;600V 55A
*SYM=IGBT
.SUBCKT IRGPC50U 71 72 74
*     TERMINALS:  C  G  E
* IR  600 Volt  55 Amp  28.5NS  N-Channel IGBT  06-18-1992
Q1  83 81 85     QOUT ;OFF
M1  81 82 83 83  MFIN L=1U W=1U
DSD 83 81  DO
DBE 85 81  DE
RC  85 71  1.4M
RE  83 73  1.94M
RG  72 82  4.42
CGE 82 83  3.3N
CGC 82 71  1P
EGD 91  0 82 81  1
VFB 93  0  0
FFB 82 81  VFB  1
CGD 92 93  19.4N
R1  92  0  1
D1  91 92  DLIM
DHV 94 93  DR
R2  91 94  1
D2  94  0  DLIM
DLV 94 95  DR 4
RLV 95  0  1
ESD 96 93  POLY(1) 83 81  19  1
MLV 95 96 93 93  SW
LE  73 74  13N
.MODEL SW NMOS (LEVEL=3 VTO=0 KP=5)
.MODEL QOUT PNP (IS=1.9P NF=1.2 BF=5.1 CJE=13.1N TF=9.5N XTB=1.3)
.MODEL MFIN NMOS (LEVEL=3 VMAX=400K THETA=60M ETA=2M VTO=4 KP=3.3)
.MODEL DR D (IS=19F CJO=3.88N VJ=1 M=.82)
.MODEL DO D (IS=19F BV=600 CJO=3.73N VJ=1 M=.7)
.MODEL DE D (IS=19F BV=22.3 N=2)
.MODEL DLIM D (IS=100U)
.ENDS 
