
*SRC=IS621220;IS621220;IGBTs;w/Diode;1200V 200A
*SYM=IGBT
.SUBCKT IS621220 71 72 74
*     TERMINALS:  C  G  E
* Powerex  1200 Volt  200 Amp  25NS  N-Channel IGBT  02-23-1993
Q1  83 81 85     QOUT
M1  81 82 83 83  MFIN L=1U W=1U
DSD 83 81  DO
DBE 85 81  DE
RC  85 71  5.6M
RE  83 73  560U
RG  72 82  .75
CGE 82 83  11.6N
CGC 82 71  1P
EGD 91  0 82 81  1
VFB 93  0  0
FFB 82 81  VFB  1
CGD 92 93  11.5N
R1  92  0  1
D1  91 92  DLIM
DHV 94 93  DR
R2  91 94  1
D2  94  0  DLIM
LE  73 74  7.5N
DLV 94 95  DR 23
RLV 95  0  1
ESD 96 93  POLY(1) 83 81  5  1
MLV 95 96 93 93  SW
DEC 74 71 DEC
.MODEL SW NMOS (LEVEL=3 VTO=0 KP=12.5)
.MODEL QOUT PNP (IS=57.2P NF=1.2 BF=5.1 CJE=55N TF=85N XTB=1.3)
.MODEL MFIN NMOS (LEVEL=3 VMAX=100K THETA=77.4M ETA=1M VTO=3.7 KP=18.5)
.MODEL DR D (IS=5.72P CJO=1N VJ=1 M=.82)
.MODEL DO D (IS=5.72P BV=1.2K CJO=37N VJ=1 M=.7)
.MODEL DE D (IS=5.72P BV=14.3 N=2)
.MODEL DLIM D (IS=100N)
.MODEL DEC D (IS=130.2U RS=5.18M N=2.59 CJO=12.3N VJ=.75 M=.333 TT=325N)
.ENDS 
