
*SRC=IS626030;IS626030;IGBTs;w/Diode;600V 300A
*SYM=IGBT
.SUBCKT IS626030 71 72 74
*     TERMINALS:  C  G  E
* Powerex  600 Volt  300 Amp  66.7NS  N-Channel IGBT  02-24-1993
Q1  83 81 85     QOUT
M1  81 82 83 83  MFIN L=1U W=1U
DSD 83 81  DO
DBE 85 81  DE
RC  85 71  3.89M
RE  83 73  389U
RG  72 82  .5
CGE 82 83  18N
CGC 82 71  1P
EGD 91  0 82 81  1
VFB 93  0  0
FFB 82 81  VFB  1
CGD 92 93  17.8N
R1  92  0  1
D1  91 92  DLIM
DHV 94 93  DR
R2  91 94  1
D2  94  0  DLIM
LE  73 74  7.5N
DLV 94 95  DR 13
RLV 95  0  1
ESD 96 93  POLY(1) 83 81  5  1
MLV 95 96 93 93  SW
DEC 74 71 DEC
.MODEL SW NMOS (LEVEL=3 VTO=0 KP=15)
.MODEL QOUT PNP (IS=85.9P NF=1.2 BF=5.1 CJE=44.2N TF=66.7N XTB=1.3)
.MODEL MFIN NMOS (LEVEL=3 VMAX=100K THETA=80M ETA=1.33M VTO=3.8 KP=17.1)
.MODEL DR D (IS=8.59P CJO=1.27N VJ=1 M=.82)
.MODEL DO D (IS=8.59P BV=600 CJO=26.3N VJ=1 M=.7)
.MODEL DE D (IS=8.59P BV=14.3 N=2)
.MODEL DLIM D (IS=100N)
.MODEL DEC D (IS=13.2U RS=5.18M N=2.59 CJO=12.3N VJ=.75 M=.333 TT=288N)
.ENDS 
