
*SRC=MGM20N50;MGM20N50;IGBTs;No Diode;500V 20A
*SYM=IGBT
.SUBCKT MGM20N50 10 20 30
*     TERMINALS:  C  G  E
Q1  30  1 10     QOUT
M1   1  2 30 30  MFIN L=1U W=1U
RG  20  2  7.5
CGD  4  1  472P
RGD  4  1  10MEG
MGD  4  5  2  2  SW L=1U W=1U
EGD  5  2  2  1  1
DDG  2  6  DCGD
MDG  6  7  1  1  SW L=1U W=1U
EDG  7  1  1  2  1
DDS 30  1  DSUB
VEC  8 10  13.5
DEC  1  8  DBE
.MODEL QOUT PNP (IS=3.78P BF=2.1 RE=31.9M TF=17.9N TR=5.95U)
.MODEL MFIN NMOS (LEVEL=3 VMAX=18.2MEG THETA=60M VTO=3.5
+ KP=.456 IS=3.78P RS=9.91M CGSO=840U)
.MODEL SW NMOS (LEVEL=3 VTO=0 KP=225.8M)
.MODEL DCGD D (CJO=472P VJ=.41 M=.5)
.MODEL DSUB D (IS=3.78P BV=499 IBV=1M CJO=240P VJ=.8 M=.4 TT=5.04N)
.MODEL DBE  D (IS=3.78P)
*Motorola 500 Volt  20 Amp  N-Channel IGBT  07-27-1991
.ENDS
