
*SRC=OM6520SC;OM6520SC;IGBTs;w/Diode;1000V 25A
*SYM=IGBT
.SUBCKT OM6520SC 71 72 74
*     TERMINALS:  C  G  E
*  1000 Volt  25 Amp  75NS  N-Channel IGBT  11-27-1995
Q1  83 81 85     QOUT
M1  81 82 83 83  MFIN L=1U W=1U
DSD 83 81  DO
DBE 85 81  DE
RC  85 71  35.7M
RE  83 73  3.57M
RG  72 82  6.5
CGE 82 83  1.93N
CGC 82 71  1P
EGD 91  0 82 81  1
VFB 93  0  0
FFB 82 81  VFB  1
CGD 92 93  12.9N
R1  92  0  1
D1  91 92  DLIM
DHV 94 93  DR
R2  91 94  1
D2  94  0  DLIM
LE  73 74  7.5N
DLV 94 95  DR 13
RLV 95  0  1
ESD 96 93  POLY(1) 83 81  25  1
MLV 95 96 93 93  SW
DFW 74 71  SKM25D
.MODEL SKM25D D (IS=2.8N RS=85.6M N=1.75 BV=600 IBV=500U
+ CJO=42.4P VJ=.75 M=.333 TT=72N)
.MODEL SW NMOS (LEVEL=3 VTO=0 KP=5)
.MODEL QOUT PNP (IS=54.7F NF=1.2 BF=5.1 CJE=13.8N TF=75N XTB=1.3)
.MODEL MFIN NMOS (LEVEL=3 VMAX=603K THETA=43.6M ETA=1.2M VTO=5.5 KP=.244)
.MODEL DR D (IS=5.47F CJO=926P VJ=1 M=.82)
.MODEL DO D (IS=5.47F BV=1K CJO=929P VJ=1 M=.7)
.MODEL DE D (IS=5.47F BV=14.3 N=2)
.MODEL DLIM D (IS=100N)
.ENDS 
