
*SRC=OM6501ST;OM6501ST;IGBTs;No Diode;500V 5A
*SYM=IGBT
.SUBCKT OM6501ST 71 72 74
*     TERMINALS:  C  G  E
*  500 Volt  5 Amp  9.25NS  N-Channel IGBT  11-27-1995
Q1  83 81 85     QOUT
M1  81 82 83 83  MFIN L=1U W=1U
DSD 83 81  DO
DBE 85 81  DE
RC  85 71  .377
RE  83 73  37.7M
RG  72 82  30
CGE 82 83  240P
CGC 82 71  1P
EGD 91  0 82 81  1
VFB 93  0  0
FFB 82 81  VFB  1
CGD 92 93  4.44N
R1  92  0  1
D1  91 92  DLIM
DHV 94 93  DR
R2  91 94  1
D2  94  0  DLIM
LE  73 74  7.5N
DLV 94 95  DR 13
RLV 95  0  1
ESD 96 93  POLY(1) 83 81  25  1
MLV 95 96 93 93  SW
.MODEL SW NMOS (LEVEL=3 VTO=0 KP=5)
.MODEL QOUT PNP (IS=29F NF=1.2 BF=5.1 CJE=4.77N TF=9.25N XTB=1.3)
.MODEL MFIN NMOS (LEVEL=3 VMAX=349K THETA=80M ETA=2.4M VTO=3 KP=.19)
.MODEL DR D (IS=2.9F CJO=317P VJ=1 M=.82)
.MODEL DO D (IS=2.9F BV=500 CJO=332P VJ=1 M=.7)
.MODEL DE D (IS=2.9F BV=14.3 N=2)
.MODEL DLIM D (IS=100N)
.ENDS 
