
*SRC=OM6525SA;OM6525SA;IGBTs;w/Diode;1000V 8A
*SYM=IGBT
.SUBCKT OM6525SA 71 72 74
*     TERMINALS:  C  G  E
*  1000 Volt  8 Amp  75NS  N-Channel IGBT  11-27-1995
Q1  83 81 85     QOUT
M1  81 82 83 83  MFIN L=1U W=1U
DSD 83 81  DO
DBE 85 81  DE
RC  85 71  .111
RE  83 73  11.1M
RG  72 82  29.3
CGE 82 83  630P
CGC 82 71  1P
EGD 91  0 82 81  1
VFB 93  0  0
FFB 82 81  VFB  1
CGD 92 93  3.84N
R1  92  0  1
D1  91 92  DLIM
DHV 94 93  DR
R2  91 94  1
D2  94  0  DLIM
LE  73 74  7.5N
DLV 94 95  DR 13
RLV 95  0  1
ESD 96 93  POLY(1) 83 81  25  1
MLV 95 96 93 93  SW
DFW 74 71 SKM25D
.MODEL SKM25D D (IS=3.87N RS=.232 N=1.75 BV=600 IBV=500U
+ CJO=42.4P VJ=.75 M=.333 TT=50.4N)
.MODEL SW NMOS (LEVEL=3 VTO=0 KP=5)
.MODEL QOUT PNP (IS=17.5F NF=1.2 BF=5.1 CJE=4.28N TF=75N XTB=1.3)
.MODEL MFIN NMOS (LEVEL=3 VMAX=603K THETA=43.6M ETA=1.2M VTO=5.5 KP=38.9M)
.MODEL DR D (IS=1.75F CJO=274P VJ=1 M=.82)
.MODEL DO D (IS=1.75F BV=1K CJO=440P VJ=1 M=.7)
.MODEL DE D (IS=1.75F BV=14.3 N=2)
.MODEL DLIM D (IS=100N)
.ENDS 
