
*SRC=OM6503SC;OM6503SC;IGBTs;No Diode;500V 20A
*SYM=IGBT
.SUBCKT OM6503SC 71 72 74
*     TERMINALS:  C  G  E
*  500 Volt  20 Amp  60NS  N-Channel IGBT  11-27-1995
Q1  83 81 85     QOUT
M1  81 82 83 83  MFIN L=1U W=1U
DSD 83 81  DO
DBE 85 81  DE
RC  85 71  .103
RE  83 73  10.3M
RG  72 82  7.5
CGE 82 83  1.58N
CGC 82 71  1P
EGD 91  0 82 81  1
VFB 93  0  0
FFB 82 81  VFB  1
CGD 92 93  23N
R1  92  0  1
D1  91 92  DLIM
DHV 94 93  DR
R2  91 94  1
D2  94  0  DLIM
LE  73 74  7.5N
DLV 94 95  DR 13
RLV 95  0  1
ESD 96 93  POLY(1) 83 81  25  1
MLV 95 96 93 93  SW
.MODEL SW NMOS (LEVEL=3 VTO=0 KP=5)
.MODEL QOUT PNP (IS=43.7F NF=1.2 BF=5.1 CJE=24.2N TF=60N XTB=1.3)
.MODEL MFIN NMOS (LEVEL=3 VMAX=349K THETA=80M ETA=2.4M VTO=3 KP=.298)
.MODEL DR D (IS=4.37F CJO=1.64N VJ=1 M=.82)
.MODEL DO D (IS=4.37F BV=500 CJO=1.12N VJ=1 M=.7)
.MODEL DE D (IS=4.37F BV=14.3 N=2)
.MODEL DLIM D (IS=100N)
.ENDS 
