
*SRC=HGTP10N50E1D;P10N50E1;IGBTs;w/Diode;500V 17.5A
*SYM=IGBT
.SUBCKT P10N50E1 71 72 74
*     TERMINALS:  C  G  E
*  500 Volt  17.5 Amp  170NS  N-Channel IGBT  07-31-1995
Q1  83 81 85     QOUT
M1  81 82 83 83  MFIN L=1U W=1U
DSD 83 81  DO
DBE 85 81  DE
RC  85 71  44.5M
RE  83 73  4.45M
RG  72 82  208
CGE 82 83  511P
CGC 82 71  1P
EGD 91  0 82 81  1
VFB 93  0  0
FFB 82 81  VFB  1
CGD 92 93  652P
R1  92  0  1
D1  91 92  DLIM
DHV 94 93  DR
R2  91 94  1
D2  94  0  DLIM
LE  73 74  7.5N
DLV 94 95  DR 13
RLV 95  0  1
ESD 96 93  POLY(1) 83 81  15  1
MLV 95 96 93 93  SW
.MODEL SW NMOS (LEVEL=3 VTO=0 KP=5)
.MODEL QOUT PNP (IS=1.91F NF=1.2 BF=5.1 CJE=1.6N TF=170N XTB=1.3)
.MODEL MFIN NMOS (LEVEL=3 VMAX=349K THETA=53.3M ETA=2.4M VTO=4.5 KP=.968)
.MODEL DR D (IS=.191F CJO=46.6P VJ=1 M=.82)
.MODEL DO D (IS=.191F BV=500 CJO=954P VJ=1 M=.7)
.MODEL DE D (IS=.191F BV=14.3 N=2)
.MODEL DLIM D (IS=100N)
.ENDS
* HARRIS 500 Volt  17.5 Amp  N-Channel IGBT  07-27-1991
* HGTP10N50E1D, HARRIS MCT/IGBTs/DIODES DATABOOK, 1994
