
*SRC=DB1506;DB1506;Diodes;Bridge;600V 15A, 3 Phase
*SYM=BRIDGE3
.SUBCKT DB1506  1 2 3  4  5
*               + - P1 P2 P3
D1 3 1 B1506
D2 4 1 B1506
D3 5 1 B1506
D4 2 4 B1506
D5 2 3 B1506
D6 2 5 B1506
.MODEL B1506 D (IS=45.3N RS=1.92M N=2.34 BV=600 IBV=6U
+ CJO=618P VJ=.75 M=.333 TT=4.32U)
* Diotec 600 Volt  15 Amp  3 us  Si Diode  07-07-1993
.ENDS
