
*SRC=KBPC2504;KBPC2504;Diodes;Bridge;400V 25A, Full Wave
*SYM=BRIDGE
.SUBCKT KBPC2504  2    3   5  4
*                 IN1  IN2 +  -
D2 2 5 BPC2504
D3 3 5 BPC2504
D4 4 3 BPC2504
D1 4 2 BPC2504
.MODEL BPC2504 D (IS=679N RS=2.22M N=2.06 BV=400 IBV=14U
+ CJO=1.02N VJ=.75 M=.333 TT=4.32U)
* Diotec 400 Volt  25 Amp  3 us  Si Diode Bridge 07-03-1993
.ENDS
