
*SRC=KBPC2508;KBPC2508;Diodes;Bridge;800V 25A, Full Wave
*SYM=BRIDGE
.SUBCKT KBPC2508  2    3   5  4
*                 IN1  IN2 +  -
D2 2 5 BPC2508
D3 3 5 BPC2508
D4 4 3 BPC2508
D1 4 2 BPC2508
.MODEL BPC2508 D (IS=679N RS=2.22M N=2.06 BV=800 IBV=17U
+ CJO=1.02N VJ=.75 M=.333 TT=4.32U)
* Diotec 800 Volt  25 Amp  3 us  Si Diode Bridge 07-03-1993
.ENDS
