
*SRC=KBPC806;KBPC806;Diodes;Bridge;500V 8A, Full Wave
*SYM=BRIDGE
.SUBCKT KBPC806  2    3   5  4
*                IN1  IN2 +  -
D2 2 5 BPC806
D3 3 5 BPC806
D4 4 3 BPC806
D1 4 2 BPC806
.MODEL BPC806 D (IS=18.3N RS=3.2M N=1.72 BV=500 IBV=8U
+ CJO=330P VJ=.75 M=.333 TT=4.32U)
* Diotec 500 Volt  8 Amp  3 us  Si Diode Bridge 07-03-1993
.ENDS
