
*SRC=KBPC810;KBPC810;Diodes;Bridge;1000V 8A, Full Wave
*SYM=BRIDGE
.SUBCKT KBPC810  2    3   5  4
*                IN1  IN2 +  -
D2 2 5 BPC810
D3 3 5 BPC810
D4 4 3 BPC810
D1 4 2 BPC810
.MODEL BPC810 D (IS=18.3N RS=3.2M N=1.72 BV=1K IBV=9U
+ CJO=330P VJ=.75 M=.333 TT=4.32U)
* Diotec 1000 Volt  8 Amp  3 us  Si Diode Bridge 07-03-1993
.ENDS
