
*SRC=KBPC2506;KBPC2506;Diodes;Bridge;600V 25A, Full Wave
*SYM=BRIDGE
.SUBCKT KBPC2506  2    3   5  4
*                 IN1  IN2 +  -
D2 2 5 BPC2506
D3 3 5 BPC2506
D4 4 3 BPC2506
D1 4 2 BPC2506
.MODEL BPC2506 D (IS=679N RS=2.22M N=2.06 BV=600 IBV=15U
+ CJO=1.02N VJ=.75 M=.333 TT=4.32U)
* Diotec 600 Volt  25 Amp  3 us  Si Diode Bridge 07-03-1993
.ENDS
