
*SRC=OMNI60;OMNI60;Diodes;Schottky;60V 20A
.MODEL OMNI60 D (IS=283N RS=3.38M N=1.05 BV=71.5 IBV=1M 
+ CJO=3.21N VJ=.75 M=.333 TT=14.4N)
*  OMNIREL 60 Volt  20 Amp  
