
*SRC=1N6638;DN6638;Diodes;Rectifier <=5A;125V 1A
.MODEL DN6638 D (IS=38N RS=1.1 N=2.17 BV=125 IBV=500N 
+ CJO=2.65P VJ=0.75 M=0.333 TT=5.76N
*125V 1A Si Signal Diode
