
*SRC=1N6660;DN6660;Diodes;Schottky;45V 40A
.MODEL DN6660 D(IS=13.3U N=1.1706 RS=11M CJO=1000P TT=100PS)
********
*SRC=1N6628;DN6628;Diodes;Rectifier <=5A;600V 2A 
.MODEL DN6628 D(IS=94.5U N=3.59 RS=33M BV=660 IBV=50U CJO=97.1PF TT=43.2NS)
*******
*SRC=1N5806;DN5806;Diodes;Rectifier <=5A;150V 2.5A
.MODEL DN5806 D (IS=23.3N RS=33.7M N=1.67 BV=150 IBV=1U 
+ CJO=66.3P VJ=.75 M=.333 TT=43.2N)
*  150 Volt  2.5 Amp  30M us  Si Diode  07-01-1994
