*******
*SRC=SSR8045;SSR8045;Diodes;Schottky;45V 40A SSDI
.MODEL SSR8045 D (IS=26M RS=3.57M N=2 BV=50 IBV=5M 
+ CJO=2.86N TT=14.4P)
* SSDI 45V 40A
*******
.MODEL SRM1UF D (IS=4.9e-5 RS=.77M N=2.45 TT=65.6N BV=303.5 
+ IBV=100U M=.252 CJO=669.7P VJ=.75 XTI=4)
* SSDI 100 Volt  20 Amp Power Diode
********
.MODEL SRM3UF D (IS=9.7E-5 RS=.74M N=2.78 TT=65.6N BV=486 
+ IBV=100U M=.102 CJO=211.1P VJ=.75 XTI=4)
* SSDI 300 Volt  20 Amp Power Diode
********
.MODEL SRM5 D (IS=.0210 N=7.5 RS=.71M TT=1.344E-7 BV=1111 
+ IBV=100U M=.348 CJO=467.4P VJ=.75 XTI=28)
* SSDI 500 Volt  20 Amp Power Diode
*********
.MODEL SRM6UF D (IS=59.6M RS=.63M N=11.5  TT=129.2N BV=1237 
+ IBV=100U M=.410 CJO=709.1P VJ=.75 XTI=58)
* SSDI 600 Volt  20 Amp Power Diode
********
.MODEL SRM5SOFT D (IS=4.95E-7 RS=1.1M N=1.96 TT=11.52U BV=1128 
+ IBV=100U M=.39 CJO=678.3P VJ=.75 XTI=4)
* SSDI 500 Volt  20 Amp Power Diode
********
*SRC=SDR937;SDR937;Diodes;Rectifier >5A;700V 100A 50NS
.MODEL SDR937 D(IS=8.359E-6 N=2.458 RS=1.93M CJO=600P M=0.6 VJ=0.34 
+ IBV=100U BV=674 TT=30N EG=1.15)
* SSDI 700 Volt  100 Amp Power Diode
