.subckt transformer1 1 2 3 4 

* inductance
L1 1 5 0.11
L2 3 6 0.22

*Couplage
K1 L1 L2 1
* résistance serie
R1 5 2 1
R2 6 4 1
.ends transformer1
