
*SRC=02BZ3_9;Z02BZ3_9;Diodes;Zener <=10V;3.9V 250mW
.MODEL Z02BZ3_9 D (IS=45.4F RS=25.4 N=1 BV=3.647 IBV=10M
+ CJO=70.7P VJ=.75 M=.33 TT=50.1N)
* Toshiba 3.9 Volt  .25 Watt  Zener Diode  11-08-1993
