
*SRC=02BZ3_3;Z02BZ3_3;Diodes;Zener <=10V;3.3V 250mW
.MODEL Z02BZ3_3 D (IS=45.4F RS=25.4 N=1 BV=3.047 IBV=10M
+ CJO=90.9P VJ=.75 M=.33 TT=50.1N)
* Toshiba 3.3 Volt  .25 Watt  Zener Diode  11-08-1993
