
*SRC=02BZ2_2;Z02BZ2_2;Diodes;Zener <=10V;2.2V 250mW
.MODEL Z02BZ2_2 D (IS=45.4F RS=25.4 N=1 BV=1.946 IBV=10M
+ CJO=167P VJ=.75 M=.33 TT=50.1N)
* Toshiba 2.2 Volt  .25 Watt  Zener Diode  11-08-1993
