
*SRC=02CZ22;Z02CZ22;Diodes;Zener 10V-50V;22V 200mW
.MODEL Z02CZ22 D (IS=12.4F RS=24.8 N=1 BV=21.88 IBV=5M
+ CJO=23.6P VJ=1 M=.33 TT=50.1N)
* Toshiba 22 Volt  .2 Watt  Zener Diode  11-08-1993
