
*SRC=02CZ3_0;Z02CZ3_0;Diodes;Zener <=10V;3.0V 200mW
.MODEL Z02CZ3_0 D (IS=1.03N RS=114 N=1 BV=2.427 IBV=5M
+ CJO=83.9P VJ=.75 M=.33 TT=50.1N)
* Toshiba 3 Volt  .2 Watt  Zener Diode  11-08-1993
