
*SRC=02CZ39;Z02CZ39;Diodes;Zener 10V-50V;39V 200mW
.MODEL Z02CZ39 D (IS=615P RS=94.8 N=1 BV=38.54 IBV=5M
+ CJO=19.8P VJ=1 M=.33 TT=50.1N)
* Toshiba 39 Volt  .2 Watt  Zener Diode  11-08-1993
