
*SRC=02CZ16;Z02CZ16;Diodes;Zener 10V-50V;16V 200mW
.MODEL Z02CZ16 D (IS=1.95F RS=12.8 N=1 BV=15.94 IBV=5M
+ CJO=26.8P VJ=1 M=.33 TT=50.1N)
* Toshiba 16 Volt  .2 Watt  Zener Diode  11-08-1993
