
*SRC=02CZ4_7;Z02CZ4_7;Diodes;Zener <=10V;4.7V 200mW
.MODEL Z02CZ4_7 D (IS=1.03N RS=114 N=1 BV=4.127 IBV=5M
+ CJO=42.8P VJ=.75 M=.33 TT=50.1N)
* Toshiba 4.7 Volt  .2 Watt  Zener Diode  11-08-1993
