
*SRC=02CZ12;Z02CZ12;Diodes;Zener 10V-50V;12V 200mW
.MODEL Z02CZ12 D (IS=1.22F RS=9.82 N=1 BV=11.95 IBV=5M
+ CJO=30.8P VJ=1 M=.33 TT=50.1N)
* Toshiba 12 Volt  .2 Watt  Zener Diode  11-08-1993
