
*SRC=02CZ36;Z02CZ36;Diodes;Zener 10V-50V;36V 200mW
.MODEL Z02CZ36 D (IS=131P RS=84.8 N=1 BV=35.59 IBV=5M
+ CJO=20.2P VJ=1 M=.33 TT=50.1N)
* Toshiba 36 Volt  .2 Watt  Zener Diode  11-08-1993
