
*SRC=02CZ2_0;Z02CZ2_0;Diodes;Zener <=10V;2.0V 200mW
.MODEL Z02CZ2_0 D (IS=28P RS=74.8 N=1 BV=1.626 IBV=5M
+ CJO=154P VJ=.75 M=.33 TT=50.1N)
* Toshiba 2 Volt  .2 Watt  Zener Diode  11-08-1993
