
*SRC=02CZ33;Z02CZ33;Diodes;Zener 10V-50V;33V 200mW
.MODEL Z02CZ33 D (IS=28P RS=74.8 N=1 BV=32.64 IBV=5M
+ CJO=20.7P VJ=1 M=.33 TT=50.1N)
* Toshiba 33 Volt  .2 Watt  Zener Diode  11-08-1993
