
*SRC=02CZ3_9;Z02CZ3_9;Diodes;Zener <=10V;3.9V 200mW
.MODEL Z02CZ3_9 D (IS=1.03N RS=124 N=1 BV=3.277 IBV=5M
+ CJO=56.6P VJ=.75 M=.33 TT=50.1N)
* Toshiba 3.9 Volt  .2 Watt  Zener Diode  11-08-1993
