
*SRC=02CZ7_5;Z02CZ7_5;Diodes;Zener <=10V;7.5V 200mW
.MODEL Z02CZ7_5 D (IS=4.22F RS=17.8 N=1 BV=7.414 IBV=5M
+ CJO=21.2P VJ=.75 M=.33 TT=50.1N)
* Toshiba 7.5 Volt  .2 Watt  Zener Diode  11-08-1993
