
*SRC=02CZ10;Z02CZ10;Diodes;Zener <=10V;10V 200mW
.MODEL Z02CZ10 D (IS=1.22F RS=9.82 N=1 BV=9.955 IBV=5M
+ CJO=13.7P VJ=.75 M=.33 TT=50.1N)
* Toshiba 10 Volt  .2 Watt  Zener Diode  11-08-1993
