
*SRC=02Z12A;Z02Z12A;Diodes;Zener 10V-50V;12V 250mW
.MODEL Z02Z12A D (IS=1.92P RS=44.8 N=1 BV=11.78 IBV=5M
+ CJO=34.8P VJ=1 M=.33 TT=50.1N)
* Toshiba 12 Volt  .25 Watt  Zener Diode  11-08-1993
