
*SRC=02Z16A;Z02Z16A;Diodes;Zener 10V-50V;16V 250mW
.MODEL Z02Z16A D (IS=1.29N RS=82.6 N=1 BV=15.71 IBV=3.5M
+ CJO=29.8P VJ=1 M=.33 TT=50.1N)
* Toshiba 16 Volt  .25 Watt  Zener Diode  11-08-1993
