
*SRC=02Z15A;Z02Z15A;Diodes;Zener 10V-50V;15V 250mW
.MODEL Z02Z15A D (IS=91.4P RS=64.8 N=1 BV=14.68 IBV=5M
+ CJO=30.8P VJ=1 M=.33 TT=50.1N)
* Toshiba 15 Volt  .25 Watt  Zener Diode  11-08-1993
