
*SRC=02Z13A;Z02Z13A;Diodes;Zener 10V-50V;13V 250mW
.MODEL Z02Z13A D (IS=13.2P RS=54.8 N=1 BV=12.73 IBV=5M
+ CJO=33.2P VJ=1 M=.33 TT=50.1N)
* Toshiba 13 Volt  .25 Watt  Zener Diode  11-08-1993
