
*SRC=02Z11A;Z02Z11A;Diodes;Zener 10V-50V;11V 250mW
.MODEL Z02Z11A D (IS=330F RS=35.7 N=1 BV=10.79 IBV=6M
+ CJO=36.6P VJ=1 M=.33 TT=50.1N)
* Toshiba 11 Volt  .25 Watt  Zener Diode  11-08-1993
