
*SRC=02Z22A;Z02Z22A;Diodes;Zener 10V-50V;22V 250mW
.MODEL Z02Z22A D (IS=1.29N RS=149 N=1 BV=21.63 IBV=2.5M
+ CJO=25.8P VJ=1 M=.33 TT=50.1N)
* Toshiba 22 Volt  .25 Watt  Zener Diode  11-08-1993
