
*SRC=02Z24A;Z02Z24A;Diodes;Zener 10V-50V;24V 250mW
.MODEL Z02Z24A D (IS=1.29N RS=189 N=1 BV=23.53 IBV=2.5M
+ CJO=24.9P VJ=1 M=.33 TT=50.1N)
* Toshiba 24 Volt  .25 Watt  Zener Diode  11-08-1993
