
*SRC=02Z20A;Z02Z20A;Diodes;Zener 10V-50V;20V 250mW
.MODEL Z02Z20A D (IS=1.29N RS=112 N=1 BV=19.61 IBV=3.5M
+ CJO=26.8P VJ=1 M=.33 TT=50.1N)
* Toshiba 20 Volt  .25 Watt  Zener Diode  11-08-1993
