
*SRC=04AZ30;Z04AZ30;Diodes;Zener 10V-50V;30V .4W
.MODEL Z04AZ30 D (IS=2.07N RS=49.8 N=1 BV=29.76 IBV=5M
+ CJO=27.6P VJ=1 M=.33 TT=50.1N)
* Toshiba 30 Volt  .4 Watt  Zener Diode  11-08-1993
