
*SRC=04AZ39;Z04AZ39;Diodes;Zener 10V-50V;39V .4W
.MODEL Z04AZ39 D (IS=2.07N RS=79.8 N=1 BV=38.62 IBV=5M
+ CJO=24.7P VJ=1 M=.33 TT=50.1N)
* Toshiba 39 Volt  .4 Watt  Zener Diode  11-08-1993
