
*SRC=04AZ5_6;Z04AZ5_6;Diodes;Zener <=10V;5.6V .4W
.MODEL Z04AZ5_6 D (IS=25.2P RS=34.8 N=1 BV=5.428 IBV=5M
+ CJO=65.8P VJ=.75 M=.33 TT=50.1N)
* Toshiba 5.6 Volt  .4 Watt  Zener Diode  11-08-1993
