
*SRC=04AZ16;Z04AZ16;Diodes;Zener 10V-50V;16V .4W
.MODEL Z04AZ16 D (IS=245F RS=19.8 N=1 BV=15.90 IBV=5M
+ CJO=38.7P VJ=1 M=.33 TT=50.1N)
* Toshiba 16 Volt  .4 Watt  Zener Diode  11-08-1993
