
*SRC=04AZ13;Z04AZ13;Diodes;Zener 10V-50V;13V .4W
.MODEL Z04AZ13 D (IS=245F RS=19.8 N=1 BV=12.90 IBV=5M
+ CJO=44.2P VJ=1 M=.33 TT=50.1N)
* Toshiba 13 Volt  .4 Watt  Zener Diode  11-08-1993
