
*SRC=04AZ3_6;Z04AZ3_6;Diodes;Zener <=10V;3.6V .4W
.MODEL Z04AZ3_6 D (IS=2.07N RS=66.8 N=1 BV=3.267 IBV=5M
+ CJO=127P VJ=.75 M=.33 TT=50.1N)
* Toshiba 3.6 Volt  .4 Watt  Zener Diode  11-08-1993
