
*SRC=04AZ36;Z04AZ36;Diodes;Zener 10V-50V;36V .4W
.MODEL Z04AZ36 D (IS=2.07N RS=69.8 N=1 BV=35.66 IBV=5M
+ CJO=25.5P VJ=1 M=.33 TT=50.1N)
* Toshiba 36 Volt  .4 Watt  Zener Diode  11-08-1993
