
*SRC=05AZ3_0;Z05AZ3_0;Diodes;Zener <=10V;3.0V .5W
.MODEL Z05AZ3_0 D (IS=2.59N RS=46.7 N=1 BV=2.066 IBV=20M
+ CJO=209P VJ=.75 M=.33 TT=50.1N)
* Toshiba 3 Volt  .5 Watt  Zener Diode  11-09-1993
