
*SRC=05AZ5_1;Z05AZ5_1;Diodes;Zener <=10V;5.1V .5W
.MODEL Z05AZ5_1 D (IS=921F RS=18.7 N=1 BV=4.728 IBV=20M
+ CJO=94.6P VJ=.75 M=.33 TT=50.1N)
* Toshiba 5.1 Volt  .5 Watt  Zener Diode  11-09-1993
