
*SRC=05AZ68;Z05AZ68;Diodes;Zener >50V;68V .5W
.MODEL Z05AZ68 D (IS=2.59N RS=187 N=1 BV=67.65 IBV=2M
+ CJO=21.9P VJ=1 M=.33 TT=50.1N)
* Toshiba 68 Volt  .5 Watt  Zener Diode  11-09-1993
