
*SRC=05AZ91;Z05AZ91;Diodes;Zener >50V;91V .5W
.MODEL Z05AZ91 D (IS=2.59N RS=387 N=1 BV=90.27 IBV=2M
+ CJO=20.2P VJ=1 M=.33 TT=50.1N)
* Toshiba 91 Volt  .5 Watt  Zener Diode  11-09-1993
