
*SRC=05AZ12;Z05AZ12;Diodes;Zener 10V-50V;12V .5W
.MODEL Z05AZ12 D (IS=25.4F RS=9.41 N=1 BV=11.91 IBV=10M
+ CJO=54.6P VJ=1 M=.33 TT=50.1N)
* Toshiba 12 Volt  .5 Watt  Zener Diode  11-09-1993
