
*SRC=05AZ47;Z05AZ47;Diodes;Zener 10V-50V;47V .5W
.MODEL Z05AZ47 D (IS=2.59N RS=84.8 N=1 BV=46.59 IBV=5M
+ CJO=25.1P VJ=1 M=.33 TT=50.1N)
* Toshiba 47 Volt  .5 Watt  Zener Diode  11-09-1993
