
*SRC=05AZ27;Z05AZ27;Diodes;Zener 10V-50V;27V .5W
.MODEL Z05AZ27 D (IS=2.59N RS=39.8 N=1 BV=26.81 IBV=5M
+ CJO=32.6P VJ=1 M=.33 TT=50.1N)
* Toshiba 27 Volt  .5 Watt  Zener Diode  11-09-1993
