
*SRC=05AZ4_7;Z05AZ4_7;Diodes;Zener <=10V;4.7V .5W
.MODEL Z05AZ4_7 D (IS=6.35P RS=23.7 N=1 BV=4.228 IBV=20M
+ CJO=107P VJ=.75 M=.33 TT=50.1N)
* Toshiba 4.7 Volt  .5 Watt  Zener Diode  11-09-1993
