
*SRC=05AZ15;Z05AZ15;Diodes;Zener 10V-50V;15V .5W
.MODEL Z05AZ15 D (IS=119F RS=13.4 N=1 BV=14.87 IBV=10M
+ CJO=46.6P VJ=1 M=.33 TT=50.1N)
* Toshiba 15 Volt  .5 Watt  Zener Diode  11-09-1993
