
*SRC=05AZ8_2;Z05AZ8_2;Diodes;Zener <=10V;8.2V .5W
.MODEL Z05AZ8_2 D (IS=8.97F RS=6.7 N=1 BV=8.069 IBV=20M
+ CJO=46.4P VJ=.75 M=.33 TT=50.1N)
* Toshiba 8.2 Volt  .5 Watt  Zener Diode  11-09-1993
