
*SRC=10KQ60;D10KQ60;Diodes;Schottky;60V 10A
.MODEL D10KQ60 D (IS=288.5N RS=22M N=1.01 BV=60 IBV=10M
+ CJO=412P VJ=.75 M=.333 TT=144N EG=0.69 XTI=2)
* Nippon Inta 60 Volt  10 Amp  .1 us  Si Diode  11-16-1993
