
*SRC=1AZ11;Z1AZ11;Diodes;Zener 10V-50V;11V 1W
.MODEL Z1AZ11 D (IS=5.19N RS=27.4 N=1 BV=10.73 IBV=10M
+ CJO=101P VJ=1 M=.33 TT=50.1N)
* Toshiba 11 Volt  1 Watt  Zener Diode  11-09-1993
