
*SRC=1AZ18;Z1AZ18;Diodes;Zener 10V-50V;18V 1W
.MODEL Z1AZ18 D (IS=5.19N RS=27.4 N=1 BV=17.73 IBV=10M
+ CJO=67.8P VJ=1 M=.33 TT=50.1N)
* Toshiba 18 Volt  1 Watt  Zener Diode  11-09-1993
