
*SRC=1AZ270Y;Z1AZ270Y;Diodes;Zener >50V;270V 1W
.MODEL Z1AZ270Y D (IS=5.19N RS=4.95K N=1 BV=272.6 IBV=500U
+ CJO=18.4P VJ=1 M=.33 TT=50.1N)
* Toshiba 275 Volt  1 Watt  Zener Diode  11-09-1993
