
*SRC=1AZ200;Z1AZ200;Diodes;Zener >50V;200V 1W
.MODEL Z1AZ200 D (IS=5.19N RS=482 N=1 BV=199.3 IBV=1.5M
+ CJO=19.7P VJ=1 M=.33 TT=50.1N)
* Toshiba 200 Volt  1 Watt  Zener Diode  11-09-1993
