
*SRC=1AZ220Z;Z1AZ220Z;Diodes;Zener >50V;220V 1W
.MODEL Z1AZ220Z D (IS=5.19N RS=4.95K N=1 BV=227.6 IBV=500U
+ CJO=19.1P VJ=1 M=.33 TT=50.1N)
* Toshiba 230 Volt  1 Watt  Zener Diode  11-09-1993
