
*SRC=1AZ270;Z1AZ270;Diodes;Zener >50V;270V 1W
.MODEL Z1AZ270 D (IS=5.19N RS=4.95K N=1 BV=267.6 IBV=500U
+ CJO=18.5P VJ=1 M=.33 TT=50.1N)
* Toshiba 270 Volt  1 Watt  Zener Diode  11-09-1993
