
*SRC=1AZ20;Z1AZ20;Diodes;Zener 10V-50V;20V 1W
.MODEL Z1AZ20 D (IS=5.19N RS=27.4 N=1 BV=19.73 IBV=10M
+ CJO=62.5P VJ=1 M=.33 TT=50.1N)
* Toshiba 20 Volt  1 Watt  Zener Diode  11-09-1993
