
*SRC=1AZ24;Z1AZ24;Diodes;Zener 10V-50V;24V 1W
.MODEL Z1AZ24 D (IS=5.19N RS=27.4 N=1 BV=23.73 IBV=10M
+ CJO=54.6P VJ=1 M=.33 TT=50.1N)
* Toshiba 24 Volt  1 Watt  Zener Diode  11-09-1993
