
*SRC=1AZ30;Z1AZ30;Diodes;Zener 10V-50V;30V 1W
.MODEL Z1AZ30 D (IS=5.19N RS=27.4 N=1 BV=29.74 IBV=10M
+ CJO=46.6P VJ=1 M=.33 TT=50.1N)
* Toshiba 30 Volt  1 Watt  Zener Diode  11-09-1993
