
*SRC=1AZ330X;Z1AZ330X;Diodes;Zener 10V-50V;30V 1W
.MODEL Z1AZ330X D (IS=5.19N RS=4.95K N=1 BV=317.6 IBV=500U
+ CJO=17.9P VJ=1 M=.33 TT=50.1N)
* Toshiba 320 Volt  1 Watt  Zener Diode  11-09-1993
