
*SRC=1AZ36;Z1AZ36;Diodes;Zener 10V-50V;36V 1W
.MODEL Z1AZ36 D (IS=5.19N RS=27.4 N=1 BV=35.74 IBV=10M
+ CJO=41.4P VJ=1 M=.33 TT=50.1N)
* Toshiba 36 Volt  1 Watt  Zener Diode  11-09-1993
