
*SRC=1AZ330Z;Z1AZ330Z;Diodes;Zener 10V-50V;30V 1W
.MODEL Z1AZ330Z D (IS=5.19N RS=4.95K N=1 BV=337.6 IBV=500U
+ CJO=17.8P VJ=1 M=.33 TT=50.1N)
* Toshiba 340 Volt  1 Watt  Zener Diode  11-09-1993
