
*SRC=1AZ330Y;Z1AZ330Y;Diodes;Zener 10V-50V;30V 1W
.MODEL Z1AZ330Y D (IS=5.19N RS=4.95K N=1 BV=330.6 IBV=500U
+ CJO=17.8P VJ=1 M=.33 TT=50.1N)
* Toshiba 333 Volt  1 Watt  Zener Diode  11-09-1993
