
*SRC=1AZ6_8;Z1AZ6_8;Diodes;Zener <=10V;6.8V 1W
.MODEL Z1AZ6_8 D (IS=5.19N RS=51.8 N=1 BV=6.285 IBV=10M
+ CJO=123P VJ=.75 M=.33 TT=50.1N)
* Toshiba 6.8 Volt  1 Watt  Zener Diode  11-09-1993
