
*SRC=1AZ8_2;Z1AZ8_2;Diodes;Zener <=10V;8.2V 1W
.MODEL Z1AZ8_2 D (IS=5.19N RS=27.4 N=1 BV=7.929 IBV=10M
+ CJO=92.8P VJ=.75 M=.33 TT=50.1N)
* Toshiba 8.2 Volt  1 Watt  Zener Diode  11-09-1993
