
*SRC=10KQ30;D10KQ30;Diodes;Schottky;30V 10A
.MODEL D10KQ30 D (IS=338.5N RS=20M N=1.01 BV=30 IBV=10M
+ CJO=412P VJ=.75 M=.333 TT=144N EG=0.69 XTI=2)
* Nippon Inta 30 Volt  10 Amp  .1 us  Si Diode  11-16-1993
