
*SRC=10KQ90;D10KQ90;Diodes;Schottky;90V 10A
.MODEL D10KQ90 D (IS=158.5N RS=30M N=1.1 BV=90 IBV=2M
+ CJO=412P VJ=.75 M=.333 TT=144N EG=0.69 XTI=2)
* Nippon Inta 90 Volt  10 Amp  .1 us  Si Diode  11-16-1993
