
*SRC=10KQ50;D10KQ50;Diodes;Schottky;50V 10A
.MODEL D10KQ50 D (IS=288.5N RS=22M N=1.01 BV=50 IBV=10M
+ CJO=412P VJ=.75 M=.333 TT=144N EG=0.69 XTI=2)
* Nippon Inta 50 Volt  10 Amp  .1 us  Si Diode  11-16-1993
