
*SRC=10KQ100;D10KQ100;Diodes;Schottky;100V 10A
.MODEL D10KQ100 D (IS=158.5N RS=35M N=1.15 BV=100 IBV=2M
+ CJO=412P VJ=.75 M=.333 TT=144N EG=0.69 XTI=2)
* Nippon Inta 100 Volt  10 Amp  .1 us  Si Diode  11-16-1993
