
*SRC=5KQ100;D5KQ100;Diodes;Schottky;100V 5A
.MODEL D5KQ100 D (IS=88.4N RS=52M N=1.3 BV=100 IBV=1M
+ CJO=206P VJ=.75 M=.333 TT=93.6N EG=0.69 XTI=2)
* Nippon Inta 100 Volt  5 Amp  65M us  Si Diode  11-16-1993
