
*SRC=5KQ40;D5KQ40;Diodes;Schottky;40V 5A
.MODEL D5KQ40 D (IS=263.4N RS=25M N=1.01 BV=40 IBV=5M
+ CJO=206P VJ=.75 M=.333 TT=72N EG=0.69 XTI=2)
* Nippon Inta 40 Volt  5 Amp  50M us  Si Diode  11-16-1993
