
*SRC=1FWJ43;DFWJ43;Diodes;Schottky;30V 1A
.MODEL DFWJ43 D (IS=9.55N RS=40M N=1.05 BV=30 IBV=500U
+ CJO=42.4P VJ=.75 M=.333 TT=50.4N EG=0.69 XTI=2)
* Toshiba 30 Volt  1 Amp  35M us  Si Diode  11-16-1993
