
*SRC=1FWJ44;DFWJ44;Diodes;Schottky;40V 1A
.MODEL DFWJ44 D (IS=9.55N RS=35M N=1.05 BV=40 IBV=500U
+ CJO=62.3P VJ=.75 M=.333 TT=50.4N EG=0.69 XTI=2)
* Toshiba 40 Volt  1 Amp  35M us  Si Diode  11-16-1993
