
*SRC=1FWJ42;DFWJ42;Diodes;Schottky;30V 1A
.MODEL DFWJ42 D (IS=9.55N RS=32M N=1.05 BV=30 IBV=500U
+ CJO=42.4P VJ=.75 M=.333 TT=55.4N EG=0.69 XTI=2)
* Toshiba 30 Volt  1 Amp  35M us  Si Diode  11-16-1993
