
*SRC=1GWJ42;DGWJ42;Diodes;Schottky;40V 1A
.MODEL DGWJ42 D (IS=9.55N RS=32M N=1.05 BV=40 IBV=500U
+ CJO=46.4P VJ=.75 M=.333 TT=50.4N EG=0.69 XTI=2)
* Toshiba 40 Volt  1 Amp  35M us  Si Diode  11-16-1993
