
*SRC=1R5BZ61;DR5BZ61;Diodes;Rectifier <=5A;100V 1.5A
.MODEL DR5BZ61 D (IS=227P RS=42M N=1.5 BV=100 IBV=10U
+ CJO=63P VJ=.75 M=.333 TT=150N)
* Toshiba 100 Volt  1.5 Amp  100M us  Si Diode  11-09-1993
