
*SRC=1R5DZ41;DR5DZ41;Diodes;Rectifier <=5A;200V 1.5A
.MODEL DR5DZ41 D (IS=4N RS=42M N=1.75 BV=200 IBV=35U
+ CJO=63P VJ=.75 M=.333 TT=144U)
* Toshiba 200 Volt  1.5 Amp  100 us  Si Diode  11-09-1993
