
*SRC=1R5DU41;DR5DU41;Diodes;Rectifier <=5A;200V 1.5A
.MODEL DR5DU41 D (IS=1.73N RS=42M N=1.67 BV=200 IBV=50U
+ CJO=63P VJ=.75 M=.333 TT=144N)
* Toshiba 200 Volt  1.5 Amp  .1 us  Si Diode  11-09-1993
