
*SRC=1R5GZ61;DR5GZ61;Diodes;Rectifier <=5A;400V 1.5A
.MODEL DR5GZ61 D (IS=17.9P RS=42M N=1.34 BV=400 IBV=10U
+ CJO=63P VJ=.75 M=.333 TT=158N)
* Toshiba 400 Volt  1.5 Amp  .11 us  Si Diode  11-09-1993
