
*SRC=1R5NU41;DR5NU41;Diodes;Rectifier <=5A;1000V 1.5A
.MODEL DR5NU41 D (IS=18.9P RS=53.7M N=1.34 BV=1K IBV=100U
+ CJO=63P VJ=.75 M=.333 TT=144N)
* Toshiba 1000 Volt  1.5 Amp  .1 us  Si Diode  11-09-1993
