
*SRC=1R5NZ41;DR5NZ41;Diodes;Rectifier <=5A;1000V 1.5A
.MODEL DR5NZ41 D (IS=4N RS=42M N=1.75 BV=1K IBV=160U
+ CJO=63P VJ=.75 M=.333 TT=144N)
* Toshiba 1000 Volt  1.5 Amp  .1 us  Si Diode  11-09-1993
