
*SRC=1S316;DS316;Diodes;Rectifier <=5A;800V 0.45A
.MODEL DS316 D (IS=18.4N RS=42M N=1.75 BV=800 IBV=570U
+ CJO=206P VJ=.75 M=.333 TT=720N)
* Hitachi 800 Volt  0.45 Amp  .5 us  Si Diode  11-09-1993
