
*SRC=1S315;DS315;Diodes;Rectifier <=5A;500V 0.5A
.MODEL DS315 D (IS=18.4N RS=42M N=1.75 BV=500 IBV=360U
+ CJO=206P VJ=.75 M=.333 TT=648N)
* Hitachi 500 Volt  0.5 Amp  .45 us  Si Diode  11-09-1993
