
*SRC=1S310;DS310;Diodes;Rectifier <=5A;50V 0.5A
.MODEL DS310 D (IS=18.4N RS=42M N=1.75 BV=50 IBV=40U
+ CJO=206P VJ=.75 M=.333 TT=576N)
* Hitachi 50 Volt  0.5 Amp  .4 us  Si Diode  11-09-1993
