
*SRC=1S815;DS815;Diodes;Rectifier <=5A;1200V 0.5A
.MODEL DS815 D (IS=5.59N RS=48M N=1.85 BV=1.2K IBV=260U
+ CJO=83.5P VJ=.75 M=.333 TT=5.04U)
* Fujidenki 1200 Volt  0.5 Amp  3.5 us  Si Diode  11-11-1993
