
*SRC=1S825;DS825;Diodes;Rectifier <=5A;1200V 2.5A
.MODEL DS825 D (IS=5.59N RS=20M N=1.70 BV=1.2K IBV=2M
+ CJO=83.5P VJ=.75 M=.333 TT=1.44U)
* Fujidenki 1200 Volt  2.5 Amp  1 us  Si Diode  11-11-1993
