
*SRC=MV2105;MV2105;Diodes;Varactors;CT=15P @ 4V
*HELP issyntax.hlp "Varactor Diodes"
.MODEL MV2105 D(M=.47 VJ=1.1 CJO=41.00P BV=43.33 IBV=10N)
* Motorola  CT=15P @ 4V Si Varactor Diode
