
*SRC=MV2101;MV2101;Diodes;Varactors;CT=6.8P @ 4V
*HELP issyntax.hlp "Varactor Diodes"
.MODEL MV2101 D(M=.447 VJ=3.69 CJO=11.24P BV=43.33 IBV=10N)
* Motorola  CT=6.8P @ 4V Si Varactor Diode
