
*SRC=MV2113;MV2113;Diodes;Varactors;CT=68P @ 4V
*HELP issyntax.hlp "Varactor Diodes"
.MODEL MV2113 D(M=.420 VJ=3.28 CJO=11.35P BV=43.33 IBV=10N)
* Motorola  CT=68P @ 4V Si Varactor Diode
