
*SRC=1N5221B;ZN5221B;Diodes;Zener <=10V;2.4V .5W
.MODEL ZN5221B D (IS=43.7P RS=28.7 N=1 BV=1.826 IBV=20M
+ CJO=293P VJ=.75 M=.33 TT=50.1N)
* Nichiden 2.4 Volt  .5 Watt  Zener Diode  11-11-1993
