
*SRC=1N5225B;ZN5225B;Diodes;Zener <=10V;3.0V .5W
.MODEL ZN5225B D (IS=29.7P RS=27.7 N=1 BV=2.447 IBV=20M
+ CJO=209P VJ=.75 M=.33 TT=50.1N)
* Nichiden 3 Volt  .5 Watt  Zener Diode  11-11-1993
