
*SRC=1N755A;ZN755A;Diodes;Zener <=10V;7.5V .4W
.MODEL ZN755A D (IS=2.3F RS=4.7 N=1 BV=7.409 IBV=20M
+ CJO=42.4P VJ=.75 M=.33 TT=50.1N)
* Yunizon 7.5 Volt  .4 Watt  Zener Diode  11-11-1993
