
*SRC=1N962B;ZN962B;Diodes;Zener 10V-50V;11V .4W
.MODEL ZN962B D (IS=5.05F RS=7.25 N=1 BV=10.92 IBV=11.5M
+ CJO=49.5P VJ=1 M=.33 TT=50.1N)
* Yunizon 11 Volt  .4 Watt  Zener Diode  11-11-1993
