
*SRC=1R5BZ41;DR5BZ41;Diodes;Rectifier <=5A;100V 1.5A
.MODEL DR5BZ41 D (IS=4N RS=42M N=1.75 BV=100 IBV=20U
+ CJO=63P VJ=.75 M=.333 TT=150N)
* Toshiba 100 Volt  1.5 Amp  100M us  Si Diode  11-09-1993
