
*SRC=1R5CL41;DR5CL41;Diodes;Rectifier <=5A;150V 1.5A
.MODEL DR5CL41 D (IS=4N RS=42M N=1.75 BV=150 IBV=100U
+ CJO=63P VJ=.75 M=.333 TT=86.4N)
* Toshiba 150 Volt  1.5 Amp  60M us  Si Diode  11-09-1993
