
*SRC=1R5DL41A;DR5DL41A;Diodes;Rectifier <=5A;200V 1.5A
.MODEL DR5DL41A D (IS=4N RS=42M N=1.75 BV=200 IBV=100U
+ CJO=63P VJ=.75 M=.333 TT=43.2N)
* Toshiba 200 Volt  1.5 Amp  30M us  Si Diode  11-09-1993
