
*SRC=1R5DL41;DR5DL41;Diodes;Rectifier <=5A;200V 1.5A
.MODEL DR5DL41 D (IS=4N RS=42M N=1.75 BV=200 IBV=100U
+ CJO=63P VJ=.75 M=.333 
* Toshiba 200 Volt  1.5 Amp  60M us  Si Diode  11-09-1993
