
*SRC=1R5GZ41;DR5GZ41;Diodes;Rectifier <=5A;400V 1.5A
.MODEL DR5GZ41 D (IS=4N RS=42M N=1.75 BV=400 IBV=70U
+ CJO=63P VJ=.75 M=.333 TT=144N)
* Toshiba 400 Volt  1.5 Amp  .1 us  Si Diode  11-09-1993
