
*SRC=1R5JZ41;DR5JZ41;Diodes;Rectifier <=5A;600V 1.5A
.MODEL DR5JZ41 D (IS=4N RS=42M N=1.75 BV=600 IBV=100U
+ CJO=63P VJ=.75 M=.333 TT=144N)
* Toshiba 600 Volt  1.5 Amp  .1 us  Si Diode  11-09-1993
