
*SRC=1R5JZ61;DR5JZ61;Diodes;Rectifier <=5A;600V 1.5A
.MODEL DR5JZ61 D (IS=4N RS=42M N=1.75 BV=600 IBV=100U
+ CJO=63P VJ=.75 M=.333 TT=136N)
* Toshiba 600 Volt  1.5 Amp  95M us  Si Diode  11-09-1993
