
*SRC=1R5LZ41;DR5LZ41;Diodes;Rectifier <=5A;800V 1.5A
.MODEL DR5LZ41 D (IS=4N RS=42M N=1.75 BV=800 IBV=130U
+ CJO=63P VJ=.75 M=.333 TT=216N)
* Toshiba 800 Volt  1.5 Amp  .15 us  Si Diode  11-09-1993
