
*SRC=1R5NH45;DR5NH45;Diodes;Rectifier <=5A;1000V 1.5A
.MODEL DR5NH45 D (IS=1.76N RS=46.9M N=1.67 BV=1K IBV=100U
+ CJO=63P VJ=.75 M=.333 TT=288N)
* Toshiba 1000 Volt  1.5 Amp  .2 us  Si Diode  11-09-1993
