
*SRC=1R5TH61;DR5TH61;Diodes;Rectifier <=5A;1500V 1.5A
.MODEL DR5TH61 D (IS=2.55N RS=42M N=1.75 BV=1.5K IBV=150U
+ CJO=42.4P VJ=.75 M=.333 TT=14.4U)
* Toshiba 1500 Volt  1 Amp  10 us  Si Diode  11-09-1993
