
*SRC=1S813;DS813;Diodes;Rectifier <=5A;800V 0.5A
.MODEL DS813 D (IS=5.59N RS=52M N=1.84 BV=800 IBV=180U
+ CJO=83.5P VJ=.75 M=.333 TT=1.44U)
* Fujidenki 800 Volt  0.5 Amp  1 us  Si Diode  11-11-1993
