
*SRC=1S824;DS824;Diodes;Rectifier <=5A;1000V 2.5A
.MODEL DS824 D (IS=5.59N RS=20M N=1.70 BV=1000 IBV=2M
+ CJO=83.5P VJ=.75 M=.333 TT=1.44U)
* Fujidenki 1000 Volt  2.5 Amp  1 us  Si Diode  11-11-1993
