
*SRC=MV2103;MV2103;Diodes;Varactors;CT=10P @ 4V
*HELP issyntax.hlp "Varactor Diodes"
.MODEL MV2103 D(M=.444 VJ=3.64 CJO=11.35P BV=43.33 IBV=10N)
* Motorola  CT=10P @ 4V Si Varactor Diode
