
*SRC=MV2109;MV2109;Diodes;Varactors;CT=33P @ 4V
*HELP issyntax.hlp "Varactor Diodes"
.MODEL MV2109 D(M=.427 VJ=3.38 CJO=11.35P BV=43.33 IBV=10N)
* Motorola  CT=33P @ 4V Si Varactor Diode
