
*SRC=02BZ2_7;Z02BZ2_7;Diodes;Zener <=10V;2.7V 250mW
.MODEL Z02BZ2_7 D (IS=45.4F RS=25.4 N=1 BV=2.447 IBV=10M
+ CJO=122P VJ=.75 M=.33 TT=50.1N)
* Toshiba 2.7 Volt  .25 Watt  Zener Diode  11-08-1993
