
*SRC=02CZ3_3;Z02CZ3_3;Diodes;Zener <=10V;3.3V 200mW
.MODEL Z02CZ3_3 D (IS=1.03N RS=124 N=1 BV=2.677 IBV=5M
+ CJO=72.7P VJ=.75 M=.33 TT=50.1N)
* Toshiba 3.3 Volt  .2 Watt  Zener Diode  11-08-1993
