
*SRC=02CZ8_2;Z02CZ8_2;Diodes;Zener <=10V;8.2V 200mW
.MODEL Z02CZ8_2 D (IS=2.65F RS=14.8 N=1 BV=8.129 IBV=5M
+ CJO=18.5P VJ=.75 M=.33 TT=50.1N)
* Toshiba 8.2 Volt  .2 Watt  Zener Diode  11-08-1993
