
*SRC=02CZ2_4;Z02CZ2_4;Diodes;Zener <=10V;2.4V 200mW
.MODEL Z02CZ2_4 D (IS=331P RS=90.8 N=1 BV=1.946 IBV=5M
+ CJO=117P VJ=.75 M=.33 TT=50.1N)
* Toshiba 2.4 Volt  .2 Watt  Zener Diode  11-08-1993
