
*SRC=02CZ30;Z02CZ30;Diodes;Zener 10V-50V;30V 200mW
.MODEL Z02CZ30 D (IS=28P RS=74.8 N=1 BV=29.64 IBV=5M
+ CJO=21.3P VJ=1 M=.33 TT=50.1N)
* Toshiba 30 Volt  .2 Watt  Zener Diode  11-08-1993
