
*SRC=02CZ20;Z02CZ20;Diodes;Zener 10V-50V;20V 200mW
.MODEL Z02CZ20 D (IS=5.75F RS=19.8 N=1 BV=19.91 IBV=5M
+ CJO=24.5P VJ=1 M=.33 TT=50.1N)
* Toshiba 20 Volt  .2 Watt  Zener Diode  11-08-1993
