
*SRC=02CZ27;Z02CZ27;Diodes;Zener 10V-50V;27V 200mW
.MODEL Z02CZ27 D (IS=5.99P RS=64.8 N=1 BV=26.68 IBV=5M
+ CJO=22P VJ=1 M=.33 TT=50.1N)
* Toshiba 27 Volt  .2 Watt  Zener Diode  11-08-1993
