
*SRC=02CZ18;Z02CZ18;Diodes;Zener 10V-50V;18V 200mW
.MODEL Z02CZ18 D (IS=2.65F RS=14.8 N=1 BV=17.93 IBV=5M
+ CJO=25.5P VJ=1 M=.33 TT=50.1N)
* Toshiba 18 Volt  .2 Watt  Zener Diode  11-08-1993
