
*SRC=02CZ15;Z02CZ15;Diodes;Zener 10V-50V;15V 200mW
.MODEL Z02CZ15 D (IS=1.22F RS=9.82 N=1 BV=14.95 IBV=5M
+ CJO=27.6P VJ=1 M=.33 TT=50.1N)
* Toshiba 15 Volt  .2 Watt  Zener Diode  11-08-1993
