
*SRC=02CZ24;Z02CZ24;Diodes;Zener 10V-50V;24V 200mW
.MODEL Z02CZ24 D (IS=58.3F RS=34.8 N=1 BV=23.83 IBV=5M
+ CJO=22.9P VJ=1 M=.33 TT=50.1N)
* Toshiba 24 Volt  .2 Watt  Zener Diode  11-08-1993
