
*SRC=02CZ6_2;Z02CZ6_2;Diodes;Zener <=10V;6.2V 200mW
.MODEL Z02CZ6_2 D (IS=12.4F RS=24.8 N=1 BV=6.078 IBV=5M
+ CJO=28.2P VJ=.75 M=.33 TT=50.1N)
* Toshiba 6.2 Volt  .2 Watt  Zener Diode  11-08-1993
