
*SRC=02CZ13;Z02CZ13;Diodes;Zener 10V-50V;13V 200mW
.MODEL Z02CZ13 D (IS=1.22F RS=9.82 N=1 BV=12.95 IBV=5M
+ CJO=29.6P VJ=1 M=.33 TT=50.1N)
* Toshiba 13 Volt  .2 Watt  Zener Diode  11-08-1993
