
*SRC=02Z8_2A;Z02Z8_2A;Diodes;Zener <=10V;8.2V 250mW
.MODEL Z02Z8_2A D (IS=8.56F RS=16.7 N=1 BV=8.069 IBV=8M
+ CJO=23.2P VJ=.75 M=.33 TT=50.1N)
* Toshiba 8.2 Volt  .25 Watt  Zener Diode  11-08-1993
