
*SRC=02Z18A;Z02Z18A;Diodes;Zener 10V-50V;18V 250mW
.MODEL Z02Z18A D (IS=1.29N RS=92.6 N=1 BV=17.68 IBV=3.5M
+ CJO=28.2P VJ=1 M=.33 TT=50.1N)
* Toshiba 18 Volt  .25 Watt  Zener Diode  11-08-1993
