
*SRC=04AZ6_2;Z04AZ6_2;Diodes;Zener <=10V;6.2V .4W
.MODEL Z04AZ6_2 D (IS=1.14P RS=24.8 N=1 BV=6.078 IBV=5M
+ CJO=56.5P VJ=.75 M=.33 TT=50.1N)
* Toshiba 6.2 Volt  .4 Watt  Zener Diode  11-08-1993
