
*SRC=04AZ18;Z04AZ18;Diodes;Zener 10V-50V;18V .4W
.MODEL Z04AZ18 D (IS=1.14P RS=24.8 N=1 BV=17.88 IBV=5M
+ CJO=36.1P VJ=1 M=.33 TT=50.1N)
* Toshiba 18 Volt  .4 Watt  Zener Diode  11-08-1993
