
*SRC=04AZ5_1;Z04AZ5_1;Diodes;Zener <=10V;5.1V .4W
.MODEL Z04AZ5_1 D (IS=2.07N RS=54.8 N=1 BV=4.828 IBV=5M
+ CJO=75.7P VJ=.75 M=.33 TT=50.1N)
* Toshiba 5.1 Volt  .4 Watt  Zener Diode  11-08-1993
