
*SRC=04AZ4_3;Z04AZ4_3;Diodes;Zener <=10V;4.3V .4W
.MODEL Z04AZ4_3 D (IS=2.07N RS=80.8 N=1 BV=3.897 IBV=5M
+ CJO=97.8P VJ=.75 M=.33 TT=50.1N)
* Toshiba 4.3 Volt  .4 Watt  Zener Diode  11-08-1993
