
*SRC=04AZ10;Z04AZ10;Diodes;Zener <=10V;10V .4W
.MODEL Z04AZ10 D (IS=52.4F RS=14.8 N=1 BV=9.930 IBV=5M
+ CJO=27.5P VJ=.75 M=.33 TT=50.1N)
* Toshiba 10 Volt  .4 Watt  Zener Diode  11-08-1993
