
*SRC=04AZ2_2;Z04AZ2_2;Diodes;Zener <=10V;2.2V .4W
.MODEL Z04AZ2_2 D (IS=86.7P RS=38.8 N=1 BV=2.006 IBV=5M
+ CJO=267P VJ=.75 M=.33 TT=50.1N)
* Toshiba 2.2 Volt  .4 Watt  Zener Diode  11-08-1993
