
*SRC=04AZ9_1;Z04AZ9_1;Diodes;Zener <=10V;9.1V .4W
.MODEL Z04AZ9_1 D (IS=52.4F RS=14.8 N=1 BV=9.030 IBV=5M
+ CJO=31.7P VJ=.75 M=.33 TT=50.1N)
* Toshiba 9.1 Volt  .4 Watt  Zener Diode  11-08-1993
