
*SRC=05AZ18;Z05AZ18;Diodes;Zener 10V-50V;18V .5W
.MODEL Z05AZ18 D (IS=1.77P RS=20.4 N=1 BV=17.80 IBV=10M
+ CJO=41.4P VJ=1 M=.33 TT=50.1N)
* Toshiba 18 Volt  .5 Watt  Zener Diode  11-09-1993
