
*SRC=05AZ3_6;Z05AZ3_6;Diodes;Zener <=10V;3.6 .5W
.MODEL Z05AZ3_6 D (IS=2.59N RS=56.3 N=1 BV=2.475 IBV=20M
+ CJO=159P VJ=.75 M=.33 TT=50.1N)
* Toshiba 3.6 Volt  .5 Watt  Zener Diode  11-09-1993
