
*SRC=05AZ51;Z05AZ51;Diodes;Zener >50V;51V .5W
.MODEL Z05AZ51 D (IS=2.59N RS=104 N=1 BV=50.50 IBV=5M
+ CJO=24.3P VJ=1 M=.33 TT=50.1N)
* Toshiba 51 Volt  .5 Watt  Zener Diode  11-09-1993
