
*SRC=05AZ20;Z05AZ20;Diodes;Zener 10V-50V;20V .5W
.MODEL Z05AZ20 D (IS=12.2P RS=25.4 N=1 BV=19.75 IBV=10M
+ CJO=38.7P VJ=1 M=.33 TT=50.1N)
* Toshiba 20 Volt  .5 Watt  Zener Diode  11-09-1993
