
*SRC=05AZ16;Z05AZ16;Diodes;Zener 10V-50V;16V .5W
.MODEL Z05AZ16 D (IS=258F RS=15.4 N=1 BV=15.85 IBV=10M
+ CJO=44.7P VJ=1 M=.33 TT=50.1N)
* Toshiba 16 Volt  .5 Watt  Zener Diode  11-09-1993
