
*SRC=05AZ33;Z05AZ33;Diodes;Zener 10V-50V;33V .5W
.MODEL Z05AZ33 D (IS=2.59N RS=59.8 N=1 BV=32.71 IBV=5M
+ CJO=29.4P VJ=1 M=.33 TT=50.1N)
* Toshiba 33 Volt  .5 Watt  Zener Diode  11-09-1993
