
*SRC=05AZ7_5;Z05AZ7_5;Diodes;Zener <=10V;7.5V .5W
.MODEL Z05AZ7_5 D (IS=8.97F RS=6.7 N=1 BV=7.369 IBV=20M
+ CJO=53P VJ=.75 M=.33 TT=50.1N)
* Toshiba 7.5 Volt  .5 Watt  Zener Diode  11-09-1993
