
*SRC=05AZ100;Z05AZ100;Diodes;Zener >50V;100V .5W
.MODEL Z05AZ100 D (IS=2.59N RS=387 N=1 BV=99.27 IBV=2M
+ CJO=19.7P VJ=1 M=.33 TT=50.1N)
* Toshiba 100 Volt  .5 Watt  Zener Diode  11-09-1993
