
*SRC=05AZ4_3;Z05AZ4_3;Diodes;Zener <=10V;4.3V .5W
.MODEL Z05AZ4_3 D (IS=2.07N RS=38.7 N=1 BV=3.527 IBV=20M
+ CJO=122P VJ=.75 M=.33 TT=50.1N)
* Toshiba 4.3 Volt  .5 Watt  Zener Diode  11-09-1993
