
*SRC=05AZ40;Z05AZ40;Diodes;Zener 10V-50V;40V .5W
.MODEL Z05AZ40 D (IS=2.59N RS=84.8 N=1 BV=39.59 IBV=5M
+ CJO=26.8P VJ=1 M=.33 TT=50.1N)
* Toshiba 40 Volt  .5 Watt  Zener Diode  11-09-1993
