
*SRC=05AZ75;Z05AZ75;Diodes;Zener >50V;75V .5W
.MODEL Z05AZ75 D (IS=2.59N RS=287 N=1 BV=74.46 IBV=2M
+ CJO=21.3P VJ=1 M=.33 TT=50.1N)
* Toshiba 75 Volt  .5 Watt  Zener Diode  11-09-1993
