
*SRC=05AZ22;Z05AZ22;Diodes;Zener 10V-50V;22V .5W
.MODEL Z05AZ22 D (IS=9.76P RS=24.8 N=1 BV=21.88 IBV=5M
+ CJO=36.6P VJ=1 M=.33 TT=50.1N)
* Toshiba 22 Volt  .5 Watt  Zener Diode  11-09-1993
