
*SRC=1AZ300Y;Z1AZ300Y;Diodes;Zener >50V;300V 1W
.MODEL Z1AZ300Y D (IS=5.19N RS=4.95K N=1 BV=298.6 IBV=500U
+ CJO=18.1P VJ=1 M=.33 TT=50.1N)
* Toshiba 301 Volt  1 Watt  Zener Diode  11-09-1993
