
*SRC=1AZ16;Z1AZ16;Diodes;Zener 10V-50V;16V 1W
.MODEL Z1AZ16 D (IS=5.19N RS=27.4 N=1 BV=15.73 IBV=10M
+ CJO=74.4P VJ=1 M=.33 TT=50.1N)
* Toshiba 16 Volt  1 Watt  Zener Diode  11-09-1993
