
*SRC=1AZ27;Z1AZ27;Diodes;Zener 10V-50V;27V 1W
.MODEL Z1AZ27 D (IS=5.19N RS=27.4 N=1 BV=26.73 IBV=10M
+ CJO=50.2P VJ=1 M=.33 TT=50.1N)
* Toshiba 27 Volt  1 Watt  Zener Diode  11-09-1993
