
*SRC=1AZ22;Z1AZ22;Diodes;Zener 10V-50V;22V 1W
.MODEL Z1AZ22 D (IS=5.19N RS=27.4 N=1 BV=21.73 IBV=10M
+ CJO=58.2P VJ=1 M=.33 TT=50.1N)
* Toshiba 22 Volt  1 Watt  Zener Diode  11-09-1993
