
*SRC=1AZ300Z;Z1AZ300Z;Diodes;Zener >50V;300V 1W
.MODEL Z1AZ300Z D (IS=5.19N RS=4.95K N=1 BV=307.6 IBV=500U
+ CJO=18P VJ=1 M=.33 TT=50.1N)
* Toshiba 310 Volt  1 Watt  Zener Diode  11-09-1993
