
*SRC=1AZ240Z;Z1AZ240Z;Diodes;Zener >50V;240V 1W
.MODEL Z1AZ240Z D (IS=5.19N RS=4.95K N=1 BV=247.6 IBV=500U
+ CJO=18.8P VJ=1 M=.33 TT=50.1N)
* Toshiba 250 Volt  1 Watt  Zener Diode  11-09-1993
