
*SRC=1AZ200Y;Z1AZ200Y;Diodes;Zener >50V;200V 1W
.MODEL Z1AZ200Y D (IS=5.19N RS=4.95K N=1 BV=217.6 IBV=500U
+ CJO=19.3P VJ=1 M=.33 TT=50.1N)
* Toshiba 220 Volt  1 Watt  Zener Diode  11-09-1993
