
*SRC=1AZ240Y;Z1AZ240Y;Diodes;Zener >50V;240V 1W
.MODEL Z1AZ240Y D (IS=5.19N RS=4.95K N=1 BV=241.6 IBV=500U
+ CJO=18.9P VJ=1 M=.33 TT=50.1N)
* Toshiba 244 Volt  1 Watt  Zener Diode  11-09-1993
