
*SRC=1AZ270Z;Z1AZ270Z;Diodes;Zener >50V;270V 1W
.MODEL Z1AZ270Z D (IS=5.19N RS=4.95K N=1 BV=277.6 IBV=500U
+ CJO=18.4P VJ=1 M=.33 TT=50.1N)
* Toshiba 280 Volt  1 Watt  Zener Diode  11-09-1993
