
*SRC=1N751A;ZN751A;Diodes;Zener <=10V;5.1V .4W
.MODEL ZN751A D (IS=68.8F RS=15.7 N=1 BV=4.788 IBV=20M
+ CJO=75.7P VJ=.75 M=.33 TT=50.1N)
* Yunizon 5.1 Volt  .4 Watt  Zener Diode  11-11-1993
