
*SRC=1N753A;ZN753A;Diodes;Zener <=10V;6.2V .4W
.MODEL ZN753A D (IS=3.14F RS=5.7 N=1 BV=6.088 IBV=20M
+ CJO=56.5P VJ=.75 M=.33 TT=50.1N)
* Yunizon 6.2 Volt  .4 Watt  Zener Diode  11-11-1993
