
*SRC=1N750A;ZN750A;Diodes;Zener <=10V;4.7V .4W
.MODEL ZN750A D (IS=127F RS=17.7 N=1 BV=4.348 IBV=20M
+ CJO=85.6P VJ=.75 M=.33 TT=50.1N)
* Yunizon 4.7 Volt  .4 Watt  Zener Diode  11-11-1993
