
*SRC=1N961B;ZN961B;Diodes;Zener <=10V;10V .4W
.MODEL ZN961B D (IS=3.92F RS=6.43 N=1 BV=9.924 IBV=12.5M
+ CJO=27.5P VJ=.75 M=.33 TT=50.1N)
* Yunizon 10 Volt  .4 Watt  Zener Diode  11-11-1993
