
*SRC=1N974B;ZN974B;Diodes;Zener 10V-50V;36V .4W
.MODEL ZN974B D (IS=2.07N RS=62.4 N=1 BV=35.80 IBV=3.4M
+ CJO=25.5P VJ=1 M=.33 TT=50.1N)
* Yunizon 36 Volt  .4 Watt  Zener Diode  11-11-1993
