
*SRC=D6525SA;D6525SA;Diodes;Rectifier <=5A;600V 1A
.MODEL D6525SA D (IS=3.87N RS=.232 N=1.75 BV=600 IBV=500U
+ CJO=42.4P VJ=.75 M=.333 TT=50.4N)
*  600 Volt  1 Amp  35M us  Si Diode  11-27-1995
