
*SRC=BY253;BY253;Diodes;Rectifier <=5A;600V 3A
.MODEL BY253 D (IS=22U RS=42M N=3.35 BV=600 IBV=20U
+ CJO=124P VJ=.75 M=.333 TT=4.32U)
* Diotec 600 Volt  3 Amp  3 us  Si Diode  02-08-1993
