
*SRC=BY299;BY299;Diodes;Rectifier <=5A;800V 2A
.MODEL BY299 D (IS=22U RS=42M N=3.35 BV=800 IBV=10U
+ CJO=73.5P VJ=.75 M=.333 TT=622N)
* Diotec 800 Volt  2 Amp  .5 us  Si Diode  02-08-1993
