
*SRC=BY297;BY297;Diodes;Rectifier <=5A;200V 2A
.MODEL BY297 D (IS=22U RS=42M N=3.35 BV=200 IBV=10U
+ CJO=74.5P VJ=.75 M=.333 TT=620N)
* Diotec 200 Volt  2 Amp  .5 us  Si Diode  02-08-1993
