
*SRC=BY296;BY296;Diodes;Rectifier <=5A;100V 2A
.MODEL BY296 D (IS=22U RS=42M N=3.35 BV=100 IBV=10U
+ CJO=73.5P VJ=.75 M=.333 TT=620N)
* Diotec 100 Volt  2 Amp  .5 us  Si Diode  02-08-1993
