
*SRC=CD410830;CD410830;Diodes;Rectifier >5A;800V 30A
.MODEL CD410830 D (IS=47.7N RS=6.72M N=1.67 BV=800 IBV=4M
+ CJO=1.23N VJ=.75 M=.333 TT=4.32U)
* Powerex  800 Volt  30 Amp  3 us  Si Diode  02-28-1993
