
*SRC=CD410430;CD410430;Diodes;Rectifier >5A;400V 30A
.MODEL CD410430 D (IS=47.7N RS=6.72M N=1.67 BV=400 IBV=4M
+ CJO=1.23N VJ=.75 M=.333 TT=4.32U)
* Powerex  400 Volt  30 Amp  3 us  Si Diode  02-28-1993
