
*SRC=CD411230;CD411230;Diodes;Rectifier >5A;1200V 30A
.MODEL CD411230 D (IS=82.7N RS=2.91M N=1.97 BV=1.2K IBV=10M
+ CJO=1.23N VJ=.75 M=.333 TT=4.32U)
* Powerex  1200 Volt  30 Amp  3 us  Si Diode  02-28-1993
