
*SRC=CD410860;CD410860;Diodes;Rectifier >5A;800V 60A
.MODEL CD410860 D (IS=6.94U RS=1.48M N=2.34 BV=800 IBV=10M
+ CJO=2.46N VJ=.75 M=.333 TT=4.32U)
* Powerex  800 Volt  60 Amp  3 us  Si Diode  02-28-1993
