
*SRC=CD411630;CD411630;Diodes;Rectifier >5A;1600V 30A
.MODEL CD411630 D (IS=82.7N RS=2.91M N=1.97 BV=1.6K IBV=10M
+ CJO=1.23N VJ=.75 M=.333 TT=4.32U)
* Powerex  1600 Volt  30 Amp  3 us  Si Diode  02-28-1993
