
*SRC=D6513SC;D6513SC;Diodes;Rectifier >5A;600V 12A
.MODEL D6513SC D (IS=84.4N RS=42M N=1.75 BV=600 IBV=500U
+ CJO=494P VJ=.75 M=.333 TT=50.4N)
*  600 Volt  12 Amp  35M us  Si Diode  11-27-1995
