
*SRC=D6520SC;D6520SC;Diodes;Rectifier <=5A;600V 1A
.MODEL D6520SC D (IS=2.8N RS=85.6M N=1.75 BV=600 IBV=500U
+ CJO=42.4P VJ=.75 M=.333 TT=72N)
*  600 Volt  1 Amp  50M us  Si Diode  11-27-1995
