
*SRC=D6534SF;D6534SF;Diodes;Rectifier <=5A;600V 1A
.MODEL D6534SF D (IS=2.77N RS=80.5M N=1.75 BV=600 IBV=500U
+ CJO=42.4P VJ=.75 M=.333 TT=288N)
*  600 Volt  1 Amp  .2 us  Si Diode  11-27-1995
