
*SRC=DD1000;DD1000;Diodes;Rectifier <=5A;10000V 20MA
.MODEL DD1000 D (IS=177P RS=446 N=23.2 BV=10K IBV=300N
+ CJO=2.14P VJ=.75 M=.333 TT=50.4N)
* Diotec 10000 Volt  20M Amp  35M us  Si Diode  07-03-1993
