
*SRC=DD1300;DD1300;Diodes;Rectifier <=5A;13000V 20MA
.MODEL DD1300 D (IS=177P RS=446 N=23.2 BV=13K IBV=300N
+ CJO=2.14P VJ=.75 M=.333 TT=50.4N)
* Diotec 13000 Volt  20M Amp  35M us  Si Diode  07-03-1993
