
*SRC=FE1C;FE1C;Diodes;Rectifier <=5A;150V 1A
.MODEL FE1C D (IS=2.51N RS=28.2M N=1.42 BV=150 IBV=1U
+ CJO=42.4P VJ=.75 M=.333 TT=21.6N)
* Diotec 150 Volt  1 Amp  15M us  Si Diode  07-03-1993
