
*SRC=ERA1502;ERA1502;Diodes;Rectifier <=5A;160V 1A
.MODEL ERA1502 D (IS=2.55N RS=42M N=1.75 BV=160 IBV=.32U
+ CJO=42.4P VJ=.75 M=.333 TT=4.32U)
* Fuji 160 Volt  1 Amp  3 us  Si Diode  07-01-1993
