
*SRC=ERA3805;ERA3805;Diodes;Rectifier <=5A;500V .5A
.MODEL ERA3805 D (IS=2.56N RS=.718 N=1.75 BV=500 IBV=10U
+ CJO=40P VJ=.75 M=.333 TT=50.4N)
* Fuji 500 Volt  .5 Amp  35M us  Si Diode  06-16-1993
