
*SRC=ERA83006;ERA83006;Diodes;Schottky;60V 1A 
.MODEL ERA83006 D (IS=22.7U RS=84.8M N=1.34 BV=60 IBV=100U
+ CJO=109P VJ=.75 M=.333 XTI=3 EG=.69 TT=72P)
* Fuji 60 Volt  1 Amp   Schottky Diode  06-25-1993
