
*SRC=ERA9102;ERA9102;Diodes;Rectifier <=5A;160V .5A
.MODEL ERA9102 D (IS=78.6F RS=37.3M N=1 BV=160 IBV=230N
+ CJO=21.8P VJ=.75 M=.333 TT=25.2N)
* Fuji 160 Volt  .5 Amp  17.5M us  Si Diode  07-01-1993
