
*SRC=ERB0615;ERB0615;Diodes;Rectifier <=5A;1200V 1A
.MODEL ERB0615 D (IS=114N RS=21.7M N=2.09 BV=1.2K IBV=120N
+ CJO=42.4P VJ=.75 M=.333 TT=2.88U)
* Fuji 1200 Volt  1 Amp  2 us  Si Diode  07-02-1993
