
*SRC=ERB3804;ERB3804;Diodes;Rectifier <=5A;400V .8A
.MODEL ERB3804 D (IS=1.92N RS=.455 N=1.73 BV=400 IBV=10U
+ CJO=48.5P VJ=.75 M=.333 TT=50.4N)
* Fuji 400 Volt  .8 Amp  35M us  Si Diode  06-16-1993
