
*SRC=ERB3805;ERB3805;Diodes;Rectifier <=5A;500V .8A
.MODEL ERB3805 D (IS=1.92N RS=.455 N=1.73 BV=500 IBV=10U
+ CJO=48.5P VJ=.75 M=.333 TT=50.4N)
* Fuji 500 Volt  .8 Amp  35M us  Si Diode  06-16-1993
