
*SRC=ERB83004;ERB83004;Diodes;Schottky;45V 2A 
.MODEL ERB83004 D (IS=9.43U RS=49.3M N=1.17 BV=45 IBV=300U
+ CJO=316P VJ=.75 M=.333 XTI=3 EG=.69 TT=72P)
* Fuji 45 Volt  2 Amp   Schottky Diode  06-29-1993
