
*SRC=ERB83006;ERB83006;Diodes;Schottky;60V 2A 
.MODEL ERB83006 D (IS=2.73U RS=43.4M N=1.05 BV=60 IBV=100U
+ CJO=230P VJ=.75 M=.333 XTI=3 EG=.69 TT=72P)
* Fuji 60 Volt  2 Amp   Schottky Diode  06-29-1993
