
*SRC=ERC3804;ERC3804;Diodes;Rectifier <=5A;400V 1A
.MODEL ERC3804 D (IS=4.71N RS=.289 N=1.58 BV=400 IBV=10U
+ CJO=99.5P VJ=.75 M=.333 TT=50.4N)
* Fuji 400 Volt  1 Amp  35M us  Si Diode  06-16-1993
