
*SRC=ERC3502;ERC3502;Diodes;Rectifier <=5A;160V 2.5A
.MODEL ERC3502 D (IS=37.2N RS=13.1M N=2.09 BV=160 IBV=400N
+ CJO=104P VJ=.75 M=.333 TT=72N)
* Fuji 160 Volt  2.5 Amp  50M us  Si Diode  07-01-1993
