
*SRC=ERC3805;ERC3805;Diodes;Rectifier <=5A;500V 1A
.MODEL ERC3805 D (IS=4.71N RS=.289 N=1.58 BV=500 IBV=10U
+ CJO=99.5P VJ=.75 M=.333 TT=50.4N)
* Fuji 500 Volt  1 Amp  35M us  Si Diode  06-16-1993
