
*SRC=ERC9102;ERC9102;Diodes;Rectifier <=5A;200V 3A
.MODEL ERC9102 D (IS=7.52N RS=9.58M N=1.47 BV=200 IBV=50U
+ CJO=61.1P VJ=.75 M=.333 TT=36N)
* Fuji 200 Volt  3 Amp  25M us  Si Diode  06-19-1993
