
*SRC=ERD0304;ERD0304;Diodes;Rectifier <=5A;320V 3A
.MODEL ERD0304 D (IS=1.33N RS=5.55M N=1.59 BV=320 IBV=.58U
+ CJO=124P VJ=.75 M=.333 TT=4.32U)
* Fuji 320 Volt  3 Amp  3 us  Si Diode  07-01-1993
