
*SRC=ERD2902;ERD2902;Diodes;Rectifier <=5A;160V 2.5A
.MODEL ERD2902 D (IS=16.5N RS=17.6M N=1.67 BV=160 IBV=700N
+ CJO=104P VJ=.75 M=.333 TT=288N)
* Fuji 160 Volt  2.5 Amp  .2 us  Si Diode  07-01-1993
