
*SRC=ERD3805;ERD3805;Diodes;Rectifier <=5A;500V 1.5A
.MODEL ERD3805 D (IS=4.17N RS=.266 N=1.75 BV=500 IBV=10U
+ CJO=121P VJ=.75 M=.333 TT=50.4N)
* Fuji 500 Volt  1.5 Amp  35M us  Si Diode  06-16-1993
