
*SRC=ERD3102;ERD3102;Diodes;Rectifier <=5A;160V 1.5A
.MODEL ERD3102 D (IS=2.46N RS=20.4M N=1.31 BV=160 IBV=500N
+ CJO=63P VJ=.75 M=.333 TT=216N)
* Fuji 160 Volt  1.5 Amp  .15 us  Si Diode  07-01-1993
