
*SRC=ERD3806;ERD3806;Diodes;Rectifier <=5A;600V 1.5A
.MODEL ERD3806 D (IS=4.17N RS=.266 N=1.75 BV=600 IBV=10U
+ CJO=121P VJ=.75 M=.333 TT=50.4N)
* Fuji 600 Volt  1.5 Amp  35M us  Si Diode  06-16-1993
