
*SRC=ERD3804;ERD3804;Diodes;Rectifier <=5A;400V 1.5A
.MODEL ERD3804 D (IS=4.17N RS=.266 N=1.75 BV=400 IBV=10U
+ CJO=121P VJ=.75 M=.333 TT=50.4N)
* Fuji 400 Volt  1.5 Amp  35M us  Si Diode  06-16-1993
