
*SRC=ERD3302;ERD3302;Diodes;Rectifier <=5A;160V 2A
.MODEL ERD3302 D (IS=1.07U RS=38.9M N=2.01 BV=160 IBV=6U
+ CJO=83.5P VJ=.75 M=.333 TT=72N)
* Fuji 160 Volt  2 Amp  50M us  Si Diode  07-01-1993
