
*SRC=ERE4115;ERE4115;Diodes;Rectifier <=5A;1200V 3A
.MODEL ERE4115 D (IS=13.5U RS=35.6M N=3.35 BV=1.2K IBV=30N
+ CJO=124P VJ=.75 M=.333 TT=1.58U)
* Fuji 1200 Volt  3 Amp  1.1 us  Si Diode  07-02-1993
