
*SRC=ESAC8204;ESAC8204;Diodes;Schottky;45V 15A
.MODEL ESAC8204 D (IS=33.4U RS=21.9M N=1.34 BV=45 IBV=300U
+ CJO=683P VJ=.75 M=.333 XTI=3 EG=.69 TT=72P)
* Fuji 45 Volt  15 Amp   Schottky Diode  06-29-1993
