
*SRC=ESAC9202;ESAC9202;Diodes;Rectifier >5A;200V 16A
.MODEL ESAC9202 D (IS=29.3N RS=9.61M N=1.6 BV=200 IBV=50U
+ CJO=80.8P VJ=.75 M=.333 TT=36N)
* Fuji 200 Volt  16 Amp  25M us  Si Diode  06-19-1993
