
*SRC=ESAC3904;ESAC3904;Diodes;Rectifier <=5A;400V 5A
.MODEL ESAC3904 D (IS=129N RS=.115 N=2.39 BV=400 IBV=50U
+ CJO=96.6P VJ=.75 M=.333 TT=50.4N)
* Fuji 400 Volt  5 Amp  35M us  Si Diode  06-16-1993
