
*SRC=ESAC9203;ESAC9203;Diodes;Rectifier >5A;300V 10A
.MODEL ESAC9203 D (IS=60U RS=13.4M N=3.52 BV=300 IBV=50U
+ CJO=23.6P VJ=.75 M=.333 TT=36N)
* Fuji 300 Volt  10 Amp  25M us  Si Diode  06-19-1993
