
*SRC=ESAC3906;ESAC3906;Diodes;Rectifier <=5A;600V 5A
.MODEL ESAC3906 D (IS=136N RS=.121 N=2.39 BV=600 IBV=50U
+ CJO=96.6P VJ=.75 M=.333 TT=50.4N)
* Fuji 600 Volt  5 Amp  35M us  Si Diode  06-16-1993
