
*SRC=ESAD9202;ESAD9202;Diodes;Rectifier >5A;200V 20A
.MODEL ESAD9202 D (IS=544N RS=3.91M N=1.84 BV=200 IBV=125U
+ CJO=106P VJ=.75 M=.333 TT=43.2N)
* Fuji 200 Volt  20 Amp  30M us  Si Diode  06-19-1993
