
*SRC=ESAD3906;ESAD3906;Diodes;Rectifier >5A;600V 10A
.MODEL ESAD3906 D (IS=537U RS=.118 N=5.03 BV=600 IBV=50U
+ CJO=179P VJ=.75 M=.333 TT=50.4N)
* Fuji 600 Volt  10 Amp  35M us  Si Diode  06-16-1993
