
*SRC=ESAD9203;ESAD9203;Diodes;Rectifier >5A;300V 20A
.MODEL ESAD9203 D (IS=11.8U RS=6.79M N=2.68 BV=300 IBV=125U
+ CJO=78.8P VJ=.75 M=.333 TT=43.2N)
* Fuji 300 Volt  20 Amp  30M us  Si Diode  06-19-1993
