
*SRC=ESAE8304;ESAE8304;Diodes;Schottky;45V 60A
.MODEL ESAE8304 D (IS=645U RS=3.83M N=1.5 BV=45 IBV=1M
+ CJO=3.41N VJ=.75 M=.333 XTI=3 EG=.69 TT=72P)
* Fuji 45 Volt  60 Amp   Schottky Diode  06-29-1993
