
*SRC=FE1F;FE1F;Diodes;Rectifier <=5A;300V 1A
.MODEL FE1F D (IS=2.51N RS=28.2M N=1.42 BV=300 IBV=1.5U
+ CJO=42.4P VJ=.75 M=.333 TT=21.6N)
* Diotec 300 Volt  1 Amp  15M us  Si Diode  07-03-1993
