
*SRC=FMMV2108;FMMV2108;Diodes;Rectifier <=5A;6.2V .2W
.MODEL FMMV2108 D IS=29.77E-15 N=1.106 RS=94.62E-3
+      XTI=3 EG=1.11 CJO=60.9E-12 M=.4768 VJ=.8658 FC=.5 
+      BV=45.14 IBV=.2589 TT=281.3E-9
* Zetex 6.2 Volt  .2 Watt  Rectifier Diode  06-15-1993
