
*SRC=5082-0013;HP0013;Diodes;Schottky;400V .5A
.MODEL HP0013 D (IS=70N RS=10 N=1.08 BV=4 IBV=10U
+ CJO=.15P VJ=.5 M=.5 EG=.69 TT=72P)
* H-P 5082-0013 400 Volt  .5 Amp  Si Schottky Diode  06-16-1993
