
*SRC=5082-2279;HP2279;Diodes;Schottky;400V .5A
.MODEL HP2279 D (IS=120N RS=10 N=1.08 BV=5 IBV=10U
+ CJO=.12P VJ=.5 M=.5 EG=.69 TT=72P)
* H-P 5082-2279 400 Volt  .5 Amp  Si Schottky Diode  06-16-1993
