
*SRC=5082-2209;HP2209;Diodes;Schottky;400V .5A
.MODEL HP2209 D (IS=.3N RS=5 N=1.08 BV=5 IBV=10U
+ CJO=.2P VJ=.65 M=.5 EG=.69 TT=72P)
* 400 Volt  .5 Amp  Si Schottky Diode  06-16-1993
* H-P 5082-2200, 5082-2202, 5082-2207, 5082-2209
