
*SRC=5082-2263;HP2263;Diodes;Schottky;400V .5A
.MODEL HP2263 D (IS=.3N RS=10 N=1.08 BV=5 IBV=10U
+ CJO=.3P VJ=.65 M=.5 EG=.69 TT=72P)
* H-P 5082-2263 400 Volt  .5 Amp  Si Schottky Diode  06-16-1993
