
*SRC=5082-2400;HP2400;Diodes;Schottky;400V .5A
.MODEL HP2400 D (IS=7N RS=10 N=1.08 BV=35 IBV=10U
+ CJO=.7P VJ=.64 M=.5 EG=.69 TT=72P)
* 400 Volt  .5 Amp  Si Schottky Diode  06-16-1993
* H-P 5082-2301, 5082-2302, 5082-2400
