
*SRC=5082-2794;HP2794;Diodes;Schottky;400V .5A
.MODEL HP2794 D (IS=40N RS=6 N=1.08 BV=5 IBV=10U
+ CJO=.2P VJ=.5 M=.5 EG=.69 TT=72P)
* 400 Volt  .5 Amp  Si Schottky Diode  06-16-1993
* H-P 5082-2765, 5082-2774, 5082-2785, 5082-2794 
