
*SRC=5082-275X;HP275X;Diodes;Schottky;400V .5A
.MODEL HP275X D (IS=1.2N RS=35 N=1.08 BV=5 IBV=10U
+ CJO=.1P VJ=.6 M=.5 EG=.69 TT=72P)
* 400 Volt  .5 Amp  Si Schottky Diode  06-16-1993
* H-P 5082-0009, 5082-275X
