
*SRC=HSMS-281X;HP281X;Diodes;Schottky;400V .5A
.MODEL HP281X D (IS=4.8E-9 RS=10 N=1.08 BV=25 IBV=10E-5
+ CJO=1.1P VJ=.65 M=.5 EG=.69 XTI=2 TT=72P)
* 400 Volt  .5 Amp  Si Schottky Diode  06-16-1993 
* H-P HSMS-0002, HSMS-281X 
