
*SRC=HSMS-280X;HP280X;Diodes;Schottky;400V .5A
.MODEL HP280X D (IS=3E-8 RS=30 N=1.08 BV=75 IBV=10E-5
+ CJO=1.6P VJ=.65 M=.5 EG=.69 XTI=2 TT=72P)
* 400 Volt  .5 Amp  Si Schottky Diode  06-16-1993 
* H-P HSMS-0001, HSMS-280X 
