
*SRC=5082-2837;HP2837;Diodes;Schottky;400V .5A
.MODEL HP2837 D (IS=2.2N RS=25 N=1.08 BV=75 IBV=10U
+ CJO=1.6P VJ=.6 M=.5 EG=.69 TT=72P)
* 400 Volt  .5 Amp  Si Schottky Diode  06-16-1993
* H-P 5082-0024, 5082-2800, 5082-2837 
