
*SRC=HSMS-282X;HP282X;Diodes;Schottky;400V .5A
.MODEL HP282X D (IS=22N RS=5 N=1.08 BV=9 IBV=10E-4
+ CJO=.7P VJ=.56 M=.5 EG=.69 XTI=2 TT=72P)
* 400 Volt  .5 Amp  Si Schottky Diode  06-16-1993 
* H-P HSMS-0003, HSMS-282X 
