
*SRC=HSCH-5836;HP5836;Diodes;Schottky;400V .5A
.MODEL HP5836 D (IS=46N RS=4 N=1.08 BV=4 IBV=10U
+ CJO=.2P VJ=.5 M=.5 EG=.69 TT=72P)
* H-P HSCH-5836 400 Volt  .5 Amp  Si Schottky Diode  06-16-1993 
