
*SRC=HSCH-5830;HP5830;Diodes;Schottky;400V .5A
.MODEL HP5830 D (IS=46N RS=12 N=1.08 BV=4 IBV=10U
+ CJO=.09P VJ=.5 M=.5 EG=.69 TT=72P)
* H-P HSCH-5830 400 Volt  .5 Amp  Si Schottky Diode  06-16-1993 
