
*SRC=HSCH-6512;HP6512;Diodes;Schottky;400V .5A
.MODEL HP6512 D (IS=.3N RS=5 N=1.08 BV=5 IBV=10U
+ CJO=.2P VJ=.65 M=.5 EG=.69 TT=72P)
* 400 Volt  .5 Amp  Si Schottky Diode  06-16-1993
* H-P HSCH-5316, HSCH-5318, HSCH-5514, HSCH-5516, HSCH-6312, HSCH-6512 
