
*SRC=HSCH-6532;HP6532;Diodes;Schottky;400V .5A
.MODEL HP6532 D (IS=40N RS=6 N=1.08 BV=5 IBV=10U
+ CJO=.2P VJ=.5 M=.5 EG=.69 TT=72P)
* 400 Volt  .5 Amp  Si Schottky Diode  06-16-1993
* H-P HSCH-5336, HSCH-5338, HSCH-5534, HSCH-5536, HSCH-6332, HSCH-6532 
