
*SRC=HSCH-6510;HP6510;Diodes;Schottky;400V .5A
.MODEL HP6510 D (IS=.3N RS=9 N=1.08 BV=5 IBV=10U
+ CJO=.13P VJ=.65 M=.5 EG=.69 TT=72P)
* 400 Volt  .5 Amp  Si Schottky Diode  06-16-1993
* H-P HSCH-5312, HSCH-5314, HSCH-5512, HSCH-5518, HSCH-6310, HSCH-6510 
