
*SRC=MR851;MR851;Diodes;Rectifier <=5A;100V 3A
.MODEL MR851 D (IS=3.91N RS=14.6M N=1.67 BV=100 IBV=100N
+ CJO=124P VJ=.75 M=.333 TT=518N)
* Motorola 100 Volt  3 Amp  .2 us  Si Diode  02-08-1993
