
*SRC=MR854;MR854;Diodes;Rectifier <=5A;400V 3A
.MODEL MR854 D (IS=3.91N RS=14.6M N=1.67 BV=400 IBV=100N
+ CJO=124P VJ=.75 M=.333 TT=520N)
* Motorola 400 Volt  3 Amp  .2 us  Si Diode  02-08-1993
