
*SRC=MUR7020;MUR7020;Diodes;Rectifier >5A;200V 70A
.MODEL MUR7020 D (IS=12.9U RS=1.73M N=2.01 BV=200 IBV=25U
+ CJO=470P VJ=.275 M=.133 TT=77N)
* Motorola 200 Volt  70 Amp  60M us  Si Diode  02-05-1993
