
*SRC=5082-2277;HP2277;Diodes;Schottky;400V .5A
.MODEL HP2277 D (IS=.2N RS=9 N=1.08 BV=10 IBV=10U
+ CJO=.35P VJ=.65 M=.5 EG=.69 TT=72P)
* H-P 5082-2277 400 Volt  .5 Amp  Si Schottky Diode  06-16-1993
