
*SRC=5082-2824;HP2824;Diodes;Schottky;400V .5A
.MODEL HP2824 D (IS=1.1N RS=10 N=1.08 BV=25 IBV=10U
+ CJO=.8P VJ=.6 M=.5 EG=.69 TT=72P)
* 400 Volt  .5 Amp  Si Schottky Diode  06-16-1993
* H-P 5082-0087, 5082-2810, 5082-2817, 5082-2824, 
