
*SRC=5082-2831;HP2831;Diodes;Schottky;400V .5A
.MODEL HP2831 D (IS=.3U RS=6 N=1.08 BV=10 IBV=10U
+ CJO=.4P VJ=.5 M=.5 EG=.69 TT=72P)
* 400 Volt  .5 Amp  Si Schottky Diode  06-16-1993
* H-P 5082-2231, 5082-2271, 5082-2831
