
*SRC=HSCH-5520;HP5520;Diodes;Schottky;400V .5A
.MODEL HP5520 D (IS=.3N RS=13 N=1.08 BV=5 IBV=10U
+ CJO=.09P VJ=.65 M=.5 EG=.69 TT=72P)
* 400 Volt  .5 Amp  Si Schottky Diode  06-16-1993
* H-P HSCH-5310, HSCH-5320, HSCH-5510, HSCH-5511, HSCH-5520 
