
*SRC=HSCH-5540;HP5540;Diodes;Schottky;400V .5A
.MODEL HP5540 D (IS=40N RS=13 N=1.08 BV=5 IBV=10U
+ CJO=.09P VJ=.5 M=.5 EG=.69 TT=72P)
* 400 Volt  .5 Amp  Si Schottky Diode  06-16-1993
* H-P HSCH-5330, HSCH-5340, HSCH-5530, HSCH-5531, HSCH-5540 
