
*SRC=HSCH-5952;HP5952;Diodes;Schottky;400V .5A
.MODEL HP5952 D (IS=.1P RS=10 N=1.08 BV=5 IBV=10U
+ CJO=.12P VJ=.85 M=.5 EG=.69 TT=72P)
* H-P HSCH-5952 400 Volt  .5 Amp  Si Schottky Diode  06-16-1993 
