
*SRC=HSCH-6530;HP6530;Diodes;Schottky;400V .5A
.MODEL HP6530 D (IS=40N RS=9 N=1.08 BV=5 IBV=10U
+ CJO=.13P VJ=.5 M=.5 EG=.69 TT=72P)
* 400 Volt  .5 Amp  Si Schottky Diode  06-16-1993
* H-P HSCH-5332, HSCH-5334, HSCH-5532, HSCH-5538, HSCH-6330, HSCH-6530 
