
*SRC=ERA1508;ERA1508;Diodes;Rectifier <=5A;640V 1A
.MODEL ERA1508 D (IS=2.55N RS=42M N=1.75 BV=640 IBV=.60U
+ CJO=42.4P VJ=.75 M=.333 TT=4.32U)
* Fuji 640 Volt  1 Amp  3 us  Si Diode  07-01-1993
