
*SRC=ERA1506;ERA1506;Diodes;Rectifier <=5A;480V 1A
.MODEL ERA1506 D (IS=2.55N RS=42M N=1.75 BV=480 IBV=.50U
+ CJO=42.4P VJ=.75 M=.333 TT=4.32U)
* Fuji 480 Volt  1 Amp  3 us  Si Diode  07-01-1993
