
*SRC=ERA1501;ERA1501;Diodes;Rectifier <=5A;80V 1A
.MODEL ERA1501 D (IS=2.55N RS=42M N=1.75 BV=80 IBV=.27U
+ CJO=42.4P VJ=.75 M=.333 TT=4.32U)
* Fuji 80 Volt  1 Amp  3 us  Si Diode  07-01-1993
