
*SRC=ERA3410;ERA3410;Diodes;Rectifier <=5A;800V .1A
.MODEL ERA3410 D (IS=29.2U RS=7.03 N=4.69 BV=800 IBV=15N
+ CJO=5.43P VJ=.75 M=.333 TT=108N)
* Fuji 800 Volt  .1 Amp  75M us  Si Diode  07-01-1993
