
*SRC=ERA3804;ERA3804;Diodes;Rectifier <=5A;400V .5A
.MODEL ERA3804 D (IS=2.56N RS=.718 N=1.75 BV=400 IBV=10U
+ CJO=40P VJ=.75 M=.333 TT=50.4N)
* Fuji 400 Volt  .5 Amp  35M us  Si Diode  06-16-1993
