
*SRC=ERA3806;ERA3806;Diodes;Rectifier <=5A;600V .5A
.MODEL ERA3806 D (IS=2.56N RS=.718 N=1.75 BV=600 IBV=10U
+ CJO=40P VJ=.75 M=.333 TT=50.4N)
* Fuji 600 Volt  .5 Amp  35M us  Si Diode  06-16-1993
