
*SRC=ERA83004;ERA83004;Diodes;Schottky;45V 1A 
.MODEL ERA83004 D (IS=3.91U RS=.114 N=1.17 BV=45 IBV=50U
+ CJO=175P VJ=.75 M=.333 XTI=3 EG=.69 TT=72P)
* Fuji 45 Volt  1 Amp   Schottky Diode  06-25-1993
