
*SRC=ERA85009;ERA85009;Diodes;Schottky;90V 1A 
.MODEL ERA85009 D (IS=4.35U RS=.229 N=1.25 BV=90 IBV=30U
+ CJO=85.4P VJ=.75 M=.333 XTI=3 EG=.69 TT=72P)
* Fuji 90 Volt  1 Amp   Schottky Diode  06-26-1993
