
*SRC=ERA9202;ERA9202;Diodes;Rectifier <=5A;200V 1A
.MODEL ERA9202 D (IS=2.58N RS=42M N=1.53 BV=200 IBV=10U
+ CJO=10.2P VJ=.75 M=.333 TT=36N)
* Fuji 200 Volt  1 Amp  25M us  Si Diode  06-19-1993
