
*SRC=ERB0613;ERB0613;Diodes;Rectifier <=5A;1040V 1A
.MODEL ERB0613 D (IS=114N RS=21.7M N=2.09 BV=1.04K IBV=100N
+ CJO=42.4P VJ=.75 M=.333 TT=2.88U)
* Fuji 1040 Volt  1 Amp  2 us  Si Diode  07-02-1993
