
*SRC=ERB3806;ERB3806;Diodes;Rectifier <=5A;600V .8A
.MODEL ERB3806 D (IS=1.92N RS=.455 N=1.73 BV=600 IBV=10U
+ CJO=48.5P VJ=.75 M=.333 TT=50.4N)
* Fuji 600 Volt  .8 Amp  35M us  Si Diode  06-16-1993
