
*SRC=ERB4410;ERB4410;Diodes;Rectifier <=5A;800V 1A
.MODEL ERB4410 D (IS=48.7N RS=25.2M N=2.01 BV=800 IBV=2U
+ CJO=42.4P VJ=.75 M=.333 TT=288N)
* Fuji 800 Volt  1 Amp  .2 us  Si Diode  07-01-1993
