
*SRC=ERB4406;ERB4406;Diodes;Rectifier <=5A;480V 1A
.MODEL ERB4406 D (IS=48.7N RS=25.2M N=2.01 BV=480 IBV=1.1U
+ CJO=42.4P VJ=.75 M=.333 TT=288N)
* Fuji 480 Volt  1 Amp  .2 us  Si Diode  07-01-1993
