
*SRC=ERB4402;ERB4402;Diodes;Rectifier <=5A;160V 1A
.MODEL ERB4402 D (IS=48.7N RS=25.2M N=2.01 BV=160 IBV=1U
+ CJO=42.4P VJ=.75 M=.333 TT=288N)
* Fuji 160 Volt  1 Amp  .2 us  Si Diode  07-01-1993
