
*SRC=ERB4408;ERB4408;Diodes;Rectifier <=5A;640V 1A
.MODEL ERB4408 D (IS=48.7N RS=25.2M N=2.01 BV=640 IBV=1.5U
+ CJO=42.4P VJ=.75 M=.333 TT=288N)
* Fuji 640 Volt  1 Amp  .2 us  Si Diode  07-01-1993
