
*SRC=ERB4404;ERB4404;Diodes;Rectifier <=5A;320V 1A
.MODEL ERB4404 D (IS=48.7N RS=25.2M N=2.01 BV=320 IBV=1U
+ CJO=42.4P VJ=.75 M=.333 TT=288N)
* Fuji 320 Volt  1 Amp  .2 us  Si Diode  07-01-1993
