
*SRC=ERB84009;ERB84009;Diodes;Schottky;90V 2A 
.MODEL ERB84009 D (IS=5.16U RS=.104 N=1.25 BV=90 IBV=30U
+ CJO=179P VJ=.75 M=.333 XTI=3 EG=.69 TT=72P)
* Fuji 90 Volt  2 Amp   Schottky Diode  06-29-1993
