
*SRC=ERB9102;ERB9102;Diodes;Rectifier <=5A;160V 1A
.MODEL ERB9102 D (IS=2.42N RS=16.8M N=1.49 BV=160 IBV=300N
+ CJO=42.4P VJ=.75 M=.333 TT=25.2N)
* Fuji 160 Volt  1 Amp  17.5M us  Si Diode  07-01-1993
