
*SRC=ERC62M04;ERC62M04;Diodes;Schottky;45V 10A
.MODEL ERC62M04 D (IS=20.3U RS=15.2M N=1.17 BV=45 IBV=1M
+ CJO=1.02N VJ=.75 M=.333 XTI=3 EG=.69 TT=72P)
* Fuji 45 Volt  10 Amp   Schottky Diode  06-29-1993
