
*SRC=ERD0302;ERD0302;Diodes;Rectifier <=5A;160V 3A
.MODEL ERD0302 D (IS=1.33N RS=5.55M N=1.59 BV=160 IBV=.41U
+ CJO=124P VJ=.75 M=.333 TT=4.32U)
* Fuji 160 Volt  3 Amp  3 us  Si Diode  07-01-1993
