
*SRC=ERD08M15;ERD08M15;Diodes;Rectifier <=5A;1200V 5A
.MODEL ERD08M15 D (IS=2.13U RS=28.9M N=2.51 BV=1.2K IBV=500N
+ CJO=206P VJ=.75 M=.333 TT=1.08U)
* Fuji 1200 Volt  5 Amp  .75 us  Si Diode  07-02-1993
