
*SRC=ERD2904;ERD2904;Diodes;Rectifier <=5A;320V 2.5A
.MODEL ERD2904 D (IS=16.4N RS=17M N=1.67 BV=320 IBV=800N
+ CJO=104P VJ=.75 M=.333 TT=288N)
* Fuji 320 Volt  2.5 Amp  .2 us  Si Diode  07-01-1993
