
*SRC=ERD2906;ERD2906;Diodes;Rectifier <=5A;480V 2.5A
.MODEL ERD2906 D (IS=16.4N RS=17M N=1.67 BV=480 IBV=900N
+ CJO=104P VJ=.75 M=.333 TT=288N)
* Fuji 480 Volt  2.5 Amp  .2 us  Si Diode  07-01-1993
