
*SRC=CS410699;CS410699;Diodes;Rectifier >5A;600V 100A
.MODEL CS410699 D (IS=1M RS=1.04M N=2.68 BV=600 IBV=15M
+ CJO=4.11N VJ=.75 M=.333 TT=10U)
* Powerex  600 Volt  100 Amp  7 us  Si Diode  02-28-1993
