
*SRC=CS410499;CS410499;Diodes;Rectifier >5A;400V 100A
.MODEL CS410499 D (IS=1M RS=1.04M N=2.68 BV=400 IBV=15M
+ CJO=4.11N VJ=.75 M=.333 TT=10U)
* Powerex 400 Volt  100 Amp  7 us  Si Diode  02-28-1993
