
*SRC=CS411499;CS411499;Diodes;Rectifier >5A;1400V 100A
.MODEL CS411499 D (IS=1M RS=1.04M N=2.68 BV=1.4K IBV=15M
+ CJO=4.11N VJ=.75 M=.333 TT=10U)
* Powerex  1400 Volt  100 Amp  7 us  Si Diode  02-28-1993
