
*SRC=CS411099;CS411099;Diodes;Rectifier >5A;1000V 100A
.MODEL CS411099 D (IS=1M RS=1.04M N=2.68 BV=1K IBV=15M
+ CJO=4.11N VJ=.75 M=.333 TT=10U)
* Powerex  1000 Volt  100 Amp  7 us  Si Diode  02-28-1993
