
*SRC=CS411299;CS411299;Diodes;Rectifier >5A;1200V 100A
.MODEL CS411299 D (IS=1M RS=1.04M N=2.68 BV=1.2K IBV=15M
+ CJO=4.11N VJ=.75 M=.333 TT=10U)
* Powerex  1200 Volt  100 Amp  7 us  Si Diode  02-28-1993
