
*SRC=ESAB9202;ESAB9202;Diodes;Rectifier <=5A;200V 5A
.MODEL ESAB9202 D (IS=13.4N RS=12.1M N=1.64 BV=200 IBV=50U
+ CJO=33.5P VJ=.75 M=.333 TT=36N)
* Fuji 200 Volt  5 Amp  25M us  Si Diode  06-19-1993
