
*SRC=ESAC6304;ESAC6304;Diodes;Schottky;45V 20A
.MODEL ESAC6304 D (IS=66.8U RS=15.9M N=1.34 BV=45 IBV=1M
+ CJO=1.02N VJ=.75 M=.333 XTI=3 EG=.69 TT=72P)
* Fuji 45 Volt  20 Amp   Schottky Diode  06-29-1993
