
*SRC=ESAD3302;ESAD3302;Diodes;Rectifier >5A;500V 20A
.MODEL ESAD3302 D (IS=73.8N RS=11.9M N=1.99 BV=500 IBV=100U
+ CJO=207P VJ=.75 M=.333 TT=72N)
* Fuji 500 Volt  20 Amp  50M us  Si Diode  06-19-1993
