
*SRC=ESAD3904;ESAD3904;Diodes;Rectifier >5A;400V 10A
.MODEL ESAD3904 D (IS=537U RS=.118 N=5.03 BV=400 IBV=50U
+ CJO=179P VJ=.75 M=.333 TT=50.4N)
* Fuji 400 Volt  10 Amp  35M us  Si Diode  06-16-1993
