
*SRC=ESAE8306;ESAE8306;Diodes;Schottky;60V 60A 
.MODEL ESAE8306 D (IS=249U RS=5.83M N=1.32 BV=60 IBV=1.2M
+ CJO=3.18N VJ=.75 M=.333 XTI=3 EG=.69 TT=72P)
* Fuji 60 Volt  60 Amp   Schottky Diode  06-29-1993
