
*SRC=SFH409;SFH409;Diodes;GaAs;5V .1A
.MODEL SFH409 D (IS=215N RS=.466 N=3.85 BV=5 IBV=10N
+ CJO=25P VJ=.75 M=.333 TT=1.44U)
* Siemens 5 Volt  .1 Amp  1 us  GaAs Diode  05-12-1993
