
*SRC=MUR1605CT;MUR1605C;Diodes;Rectifier >5A;50V 16A
.MODEL MUR1605C D (IS=179N RS=42M N=1.64 BV=50 IBV=250U
+ CJO=220P VJ=.759 M=.377 TT=50.4N)
* Motorola MUR1605CT 50 Volt  16 Amp  35M us  Si Diode  02-05-1993
