
*SRC=MUR7005;MUR7005;Diodes;Rectifier >5A;50V 70A
.MODEL MUR7005 D (IS=12.9U RS=1.73M N=2.01 BV=50 IBV=25U
+ CJO=500P VJ=.275 M=.133 TT=72.4N)
* Motorola 50 Volt  70 Amp  60M us  Si Diode  02-05-1993
