
*SRC=MUR7015;MUR7015;Diodes;Rectifier >5A;150V 70A
.MODEL MUR7015 D (IS=12.9U RS=1.73M N=2.01 BV=150 IBV=25U
+ CJO=480P VJ=.275 M=.133 TT=76.4N)
* Motorola 150 Volt  70 Amp  60M us  Si Diode  02-05-1993
